<?xml version="1.0" ?>
<routes>
   <flow id="0" begin="0" end="1800" to="c1_e1" vehsPerHour="3" from="w1_c1"/>
   <flow id="1" begin="0" end="1800" to="c1_w1" vehsPerHour="3" from="e1_c1"/>
   <flow id="2" begin="0" end="1800" to="c1_s1" vehsPerHour="1" from="n1_c1"/>
   <flow id="3" begin="0" end="1800" to="c1_n1" vehsPerHour="2" from="s1_c1"/>
   <flow id="4" begin="1800" end="3600" to="c1_e1" vehsPerHour="2" from="w1_c1"/>
   <flow id="5" begin="1800" end="3600" to="c1_w1" vehsPerHour="3" from="e1_c1"/>
   <flow id="6" begin="1800" end="3600" to="c1_s1" vehsPerHour="5" from="n1_c1"/>
   <flow id="7" begin="1800" end="3600" to="c1_n1" vehsPerHour="4" from="s1_c1"/>
   <flow id="8" begin="3600" end="5400" to="c1_e1" vehsPerHour="4" from="w1_c1"/>
   <flow id="9" begin="3600" end="5400" to="c1_w1" vehsPerHour="2" from="e1_c1"/>
   <flow id="10" begin="3600" end="5400" to="c1_s1" vehsPerHour="5" from="n1_c1"/>
   <flow id="11" begin="3600" end="5400" to="c1_n1" vehsPerHour="3" from="s1_c1"/>
   <flow id="12" begin="5400" end="7200" to="c1_e1" vehsPerHour="4" from="w1_c1"/>
   <flow id="13" begin="5400" end="7200" to="c1_w1" vehsPerHour="5" from="e1_c1"/>
   <flow id="14" begin="5400" end="7200" to="c1_s1" vehsPerHour="4" from="n1_c1"/>
   <flow id="15" begin="5400" end="7200" to="c1_n1" vehsPerHour="3" from="s1_c1"/>
   <flow id="16" begin="7200" end="9000" to="c1_e1" vehsPerHour="4" from="w1_c1"/>
   <flow id="17" begin="7200" end="9000" to="c1_w1" vehsPerHour="2" from="e1_c1"/>
   <flow id="18" begin="7200" end="9000" to="c1_s1" vehsPerHour="1" from="n1_c1"/>
   <flow id="19" begin="7200" end="9000" to="c1_n1" vehsPerHour="3" from="s1_c1"/>
   <flow id="20" begin="9000" end="10800" to="c1_e1" vehsPerHour="3" from="w1_c1"/>
   <flow id="21" begin="9000" end="10800" to="c1_w1" vehsPerHour="3" from="e1_c1"/>
   <flow id="22" begin="9000" end="10800" to="c1_s1" vehsPerHour="5" from="n1_c1"/>
   <flow id="23" begin="9000" end="10800" to="c1_n1" vehsPerHour="1" from="s1_c1"/>
   <flow id="24" begin="10800" end="12600" to="c1_e1" vehsPerHour="1" from="w1_c1"/>
   <flow id="25" begin="10800" end="12600" to="c1_w1" vehsPerHour="1" from="e1_c1"/>
   <flow id="26" begin="10800" end="12600" to="c1_s1" vehsPerHour="2" from="n1_c1"/>
   <flow id="27" begin="10800" end="12600" to="c1_n1" vehsPerHour="1" from="s1_c1"/>
   <flow id="28" begin="12600" end="14400" to="c1_e1" vehsPerHour="3" from="w1_c1"/>
   <flow id="29" begin="12600" end="14400" to="c1_w1" vehsPerHour="3" from="e1_c1"/>
   <flow id="30" begin="12600" end="14400" to="c1_s1" vehsPerHour="1" from="n1_c1"/>
   <flow id="31" begin="12600" end="14400" to="c1_n1" vehsPerHour="4" from="s1_c1"/>
   <flow id="32" begin="14400" end="16200" to="c1_e1" vehsPerHour="3" from="w1_c1"/>
   <flow id="33" begin="14400" end="16200" to="c1_w1" vehsPerHour="1" from="e1_c1"/>
   <flow id="34" begin="14400" end="16200" to="c1_s1" vehsPerHour="2" from="n1_c1"/>
   <flow id="35" begin="14400" end="16200" to="c1_n1" vehsPerHour="2" from="s1_c1"/>
   <flow id="36" begin="16200" end="18000" to="c1_e1" vehsPerHour="2" from="w1_c1"/>
   <flow id="37" begin="16200" end="18000" to="c1_w1" vehsPerHour="4" from="e1_c1"/>
   <flow id="38" begin="16200" end="18000" to="c1_s1" vehsPerHour="2" from="n1_c1"/>
   <flow id="39" begin="16200" end="18000" to="c1_n1" vehsPerHour="5" from="s1_c1"/>
   <flow id="40" begin="18000" end="19800" to="c1_e1" vehsPerHour="4" from="w1_c1"/>
   <flow id="41" begin="18000" end="19800" to="c1_w1" vehsPerHour="2" from="e1_c1"/>
   <flow id="42" begin="18000" end="19800" to="c1_s1" vehsPerHour="4" from="n1_c1"/>
   <flow id="43" begin="18000" end="19800" to="c1_n1" vehsPerHour="1" from="s1_c1"/>
   <flow id="44" begin="19800" end="21600" to="c1_e1" vehsPerHour="4" from="w1_c1"/>
   <flow id="45" begin="19800" end="21600" to="c1_w1" vehsPerHour="3" from="e1_c1"/>
   <flow id="46" begin="19800" end="21600" to="c1_s1" vehsPerHour="5" from="n1_c1"/>
   <flow id="47" begin="19800" end="21600" to="c1_n1" vehsPerHour="4" from="s1_c1"/>
   <flow id="48" begin="21600" end="23400" to="c1_e1" vehsPerHour="5" from="w1_c1"/>
   <flow id="49" begin="21600" end="23400" to="c1_w1" vehsPerHour="4" from="e1_c1"/>
   <flow id="50" begin="21600" end="23400" to="c1_s1" vehsPerHour="1" from="n1_c1"/>
   <flow id="51" begin="21600" end="23400" to="c1_n1" vehsPerHour="3" from="s1_c1"/>
   <flow id="52" begin="23400" end="25200" to="c1_e1" vehsPerHour="5" from="w1_c1"/>
   <flow id="53" begin="23400" end="25200" to="c1_w1" vehsPerHour="2" from="e1_c1"/>
   <flow id="54" begin="23400" end="25200" to="c1_s1" vehsPerHour="3" from="n1_c1"/>
   <flow id="55" begin="23400" end="25200" to="c1_n1" vehsPerHour="3" from="s1_c1"/>
   <flow id="56" begin="25200" end="27000" to="c1_e1" vehsPerHour="5" from="w1_c1"/>
   <flow id="57" begin="25200" end="27000" to="c1_w1" vehsPerHour="1" from="e1_c1"/>
   <flow id="58" begin="25200" end="27000" to="c1_s1" vehsPerHour="1" from="n1_c1"/>
   <flow id="59" begin="25200" end="27000" to="c1_n1" vehsPerHour="3" from="s1_c1"/>
   <flow id="60" begin="27000" end="28800" to="c1_e1" vehsPerHour="4" from="w1_c1"/>
   <flow id="61" begin="27000" end="28800" to="c1_w1" vehsPerHour="5" from="e1_c1"/>
   <flow id="62" begin="27000" end="28800" to="c1_s1" vehsPerHour="5" from="n1_c1"/>
   <flow id="63" begin="27000" end="28800" to="c1_n1" vehsPerHour="1" from="s1_c1"/>
   <flow id="64" begin="28800" end="30600" to="c1_e1" vehsPerHour="1" from="w1_c1"/>
   <flow id="65" begin="28800" end="30600" to="c1_w1" vehsPerHour="2" from="e1_c1"/>
   <flow id="66" begin="28800" end="30600" to="c1_s1" vehsPerHour="5" from="n1_c1"/>
   <flow id="67" begin="28800" end="30600" to="c1_n1" vehsPerHour="4" from="s1_c1"/>
   <flow id="68" begin="30600" end="32400" to="c1_e1" vehsPerHour="5" from="w1_c1"/>
   <flow id="69" begin="30600" end="32400" to="c1_w1" vehsPerHour="4" from="e1_c1"/>
   <flow id="70" begin="30600" end="32400" to="c1_s1" vehsPerHour="16" from="n1_c1"/>
   <flow id="71" begin="30600" end="32400" to="c1_n1" vehsPerHour="23" from="s1_c1"/>
   <flow id="72" begin="32400" end="34200" to="c1_e1" vehsPerHour="2" from="w1_c1"/>
   <flow id="73" begin="32400" end="34200" to="c1_w1" vehsPerHour="5" from="e1_c1"/>
   <flow id="74" begin="32400" end="34200" to="c1_s1" vehsPerHour="24" from="n1_c1"/>
   <flow id="75" begin="32400" end="34200" to="c1_n1" vehsPerHour="15" from="s1_c1"/>
   <flow id="76" begin="34200" end="36000" to="c1_e1" vehsPerHour="22" from="w1_c1"/>
   <flow id="77" begin="34200" end="36000" to="c1_w1" vehsPerHour="26" from="e1_c1"/>
   <flow id="78" begin="34200" end="36000" to="c1_s1" vehsPerHour="22" from="n1_c1"/>
   <flow id="79" begin="34200" end="36000" to="c1_n1" vehsPerHour="26" from="s1_c1"/>
   <flow id="80" begin="36000" end="37800" to="c1_e1" vehsPerHour="4" from="w1_c1"/>
   <flow id="81" begin="36000" end="37800" to="c1_w1" vehsPerHour="1" from="e1_c1"/>
   <flow id="82" begin="36000" end="37800" to="c1_s1" vehsPerHour="18" from="n1_c1"/>
   <flow id="83" begin="36000" end="37800" to="c1_n1" vehsPerHour="16" from="s1_c1"/>
   <flow id="84" begin="37800" end="39600" to="c1_e1" vehsPerHour="18" from="w1_c1"/>
   <flow id="85" begin="37800" end="39600" to="c1_w1" vehsPerHour="26" from="e1_c1"/>
   <flow id="86" begin="37800" end="39600" to="c1_s1" vehsPerHour="15" from="n1_c1"/>
   <flow id="87" begin="37800" end="39600" to="c1_n1" vehsPerHour="17" from="s1_c1"/>
   <flow id="88" begin="39600" end="41400" to="c1_e1" vehsPerHour="14" from="w1_c1"/>
   <flow id="89" begin="39600" end="41400" to="c1_w1" vehsPerHour="20" from="e1_c1"/>
   <flow id="90" begin="39600" end="41400" to="c1_s1" vehsPerHour="17" from="n1_c1"/>
   <flow id="91" begin="39600" end="41400" to="c1_n1" vehsPerHour="20" from="s1_c1"/>
   <flow id="92" begin="41400" end="43200" to="c1_e1" vehsPerHour="18" from="w1_c1"/>
   <flow id="93" begin="41400" end="43200" to="c1_w1" vehsPerHour="15" from="e1_c1"/>
   <flow id="94" begin="41400" end="43200" to="c1_s1" vehsPerHour="17" from="n1_c1"/>
   <flow id="95" begin="41400" end="43200" to="c1_n1" vehsPerHour="16" from="s1_c1"/>
   <flow id="96" begin="43200" end="45000" to="c1_e1" vehsPerHour="2" from="w1_c1"/>
   <flow id="97" begin="43200" end="45000" to="c1_w1" vehsPerHour="5" from="e1_c1"/>
   <flow id="98" begin="43200" end="45000" to="c1_s1" vehsPerHour="5" from="n1_c1"/>
   <flow id="99" begin="43200" end="45000" to="c1_n1" vehsPerHour="1" from="s1_c1"/>
   <flow id="100" begin="45000" end="46800" to="c1_e1" vehsPerHour="24" from="w1_c1"/>
   <flow id="101" begin="45000" end="46800" to="c1_w1" vehsPerHour="23" from="e1_c1"/>
   <flow id="102" begin="45000" end="46800" to="c1_s1" vehsPerHour="18" from="n1_c1"/>
   <flow id="103" begin="45000" end="46800" to="c1_n1" vehsPerHour="18" from="s1_c1"/>
   <flow id="104" begin="46800" end="48600" to="c1_e1" vehsPerHour="21" from="w1_c1"/>
   <flow id="105" begin="46800" end="48600" to="c1_w1" vehsPerHour="25" from="e1_c1"/>
   <flow id="106" begin="46800" end="48600" to="c1_s1" vehsPerHour="15" from="n1_c1"/>
   <flow id="107" begin="46800" end="48600" to="c1_n1" vehsPerHour="26" from="s1_c1"/>
   <flow id="108" begin="48600" end="50400" to="c1_e1" vehsPerHour="18" from="w1_c1"/>
   <flow id="109" begin="48600" end="50400" to="c1_w1" vehsPerHour="24" from="e1_c1"/>
   <flow id="110" begin="48600" end="50400" to="c1_s1" vehsPerHour="154" from="n1_c1"/>
   <flow id="111" begin="48600" end="50400" to="c1_n1" vehsPerHour="155" from="s1_c1"/>
   <flow id="112" begin="50400" end="52200" to="c1_e1" vehsPerHour="19" from="w1_c1"/>
   <flow id="113" begin="50400" end="52200" to="c1_w1" vehsPerHour="16" from="e1_c1"/>
   <flow id="114" begin="50400" end="52200" to="c1_s1" vehsPerHour="435" from="n1_c1"/>
   <flow id="115" begin="50400" end="52200" to="c1_n1" vehsPerHour="481" from="s1_c1"/>
   <flow id="116" begin="52200" end="54000" to="c1_e1" vehsPerHour="22" from="w1_c1"/>
   <flow id="117" begin="52200" end="54000" to="c1_w1" vehsPerHour="15" from="e1_c1"/>
   <flow id="118" begin="52200" end="54000" to="c1_s1" vehsPerHour="130" from="n1_c1"/>
   <flow id="119" begin="52200" end="54000" to="c1_n1" vehsPerHour="124" from="s1_c1"/>
   <flow id="120" begin="54000" end="55800" to="c1_e1" vehsPerHour="22" from="w1_c1"/>
   <flow id="121" begin="54000" end="55800" to="c1_w1" vehsPerHour="26" from="e1_c1"/>
   <flow id="122" begin="54000" end="55800" to="c1_s1" vehsPerHour="109" from="n1_c1"/>
   <flow id="123" begin="54000" end="55800" to="c1_n1" vehsPerHour="175" from="s1_c1"/>
   <flow id="124" begin="55800" end="57600" to="c1_e1" vehsPerHour="25" from="w1_c1"/>
   <flow id="125" begin="55800" end="57600" to="c1_w1" vehsPerHour="23" from="e1_c1"/>
   <flow id="126" begin="55800" end="57600" to="c1_s1" vehsPerHour="26" from="n1_c1"/>
   <flow id="127" begin="55800" end="57600" to="c1_n1" vehsPerHour="16" from="s1_c1"/>
   <flow id="128" begin="57600" end="59400" to="c1_e1" vehsPerHour="616" from="w1_c1"/>
   <flow id="129" begin="57600" end="59400" to="c1_w1" vehsPerHour="428" from="e1_c1"/>
   <flow id="130" begin="57600" end="59400" to="c1_s1" vehsPerHour="117" from="n1_c1"/>
   <flow id="131" begin="57600" end="59400" to="c1_n1" vehsPerHour="165" from="s1_c1"/>
   <flow id="132" begin="59400" end="61200" to="c1_e1" vehsPerHour="20" from="w1_c1"/>
   <flow id="133" begin="59400" end="61200" to="c1_w1" vehsPerHour="14" from="e1_c1"/>
   <flow id="134" begin="59400" end="61200" to="c1_s1" vehsPerHour="26" from="n1_c1"/>
   <flow id="135" begin="59400" end="61200" to="c1_n1" vehsPerHour="25" from="s1_c1"/>
   <flow id="136" begin="61200" end="63000" to="c1_e1" vehsPerHour="2" from="w1_c1"/>
   <flow id="137" begin="61200" end="63000" to="c1_w1" vehsPerHour="4" from="e1_c1"/>
   <flow id="138" begin="61200" end="63000" to="c1_s1" vehsPerHour="5" from="n1_c1"/>
   <flow id="139" begin="61200" end="63000" to="c1_n1" vehsPerHour="3" from="s1_c1"/>
   <flow id="140" begin="63000" end="64800" to="c1_e1" vehsPerHour="20" from="w1_c1"/>
   <flow id="141" begin="63000" end="64800" to="c1_w1" vehsPerHour="21" from="e1_c1"/>
   <flow id="142" begin="63000" end="64800" to="c1_s1" vehsPerHour="19" from="n1_c1"/>
   <flow id="143" begin="63000" end="64800" to="c1_n1" vehsPerHour="15" from="s1_c1"/>
   <flow id="144" begin="64800" end="66600" to="c1_e1" vehsPerHour="21" from="w1_c1"/>
   <flow id="145" begin="64800" end="66600" to="c1_w1" vehsPerHour="22" from="e1_c1"/>
   <flow id="146" begin="64800" end="66600" to="c1_s1" vehsPerHour="26" from="n1_c1"/>
   <flow id="147" begin="64800" end="66600" to="c1_n1" vehsPerHour="15" from="s1_c1"/>
   <flow id="148" begin="66600" end="68400" to="c1_e1" vehsPerHour="23" from="w1_c1"/>
   <flow id="149" begin="66600" end="68400" to="c1_w1" vehsPerHour="24" from="e1_c1"/>
   <flow id="150" begin="66600" end="68400" to="c1_s1" vehsPerHour="19" from="n1_c1"/>
   <flow id="151" begin="66600" end="68400" to="c1_n1" vehsPerHour="26" from="s1_c1"/>
   <flow id="152" begin="68400" end="70200" to="c1_e1" vehsPerHour="14" from="w1_c1"/>
   <flow id="153" begin="68400" end="70200" to="c1_w1" vehsPerHour="24" from="e1_c1"/>
   <flow id="154" begin="68400" end="70200" to="c1_s1" vehsPerHour="16" from="n1_c1"/>
   <flow id="155" begin="68400" end="70200" to="c1_n1" vehsPerHour="21" from="s1_c1"/>
   <flow id="156" begin="70200" end="72000" to="c1_e1" vehsPerHour="168" from="w1_c1"/>
   <flow id="157" begin="70200" end="72000" to="c1_w1" vehsPerHour="180" from="e1_c1"/>
   <flow id="158" begin="70200" end="72000" to="c1_s1" vehsPerHour="21" from="n1_c1"/>
   <flow id="159" begin="70200" end="72000" to="c1_n1" vehsPerHour="14" from="s1_c1"/>
   <flow id="160" begin="72000" end="73800" to="c1_e1" vehsPerHour="21" from="w1_c1"/>
   <flow id="161" begin="72000" end="73800" to="c1_w1" vehsPerHour="25" from="e1_c1"/>
   <flow id="162" begin="72000" end="73800" to="c1_s1" vehsPerHour="25" from="n1_c1"/>
   <flow id="163" begin="72000" end="73800" to="c1_n1" vehsPerHour="18" from="s1_c1"/>
   <flow id="164" begin="73800" end="75600" to="c1_e1" vehsPerHour="18" from="w1_c1"/>
   <flow id="165" begin="73800" end="75600" to="c1_w1" vehsPerHour="24" from="e1_c1"/>
   <flow id="166" begin="73800" end="75600" to="c1_s1" vehsPerHour="23" from="n1_c1"/>
   <flow id="167" begin="73800" end="75600" to="c1_n1" vehsPerHour="19" from="s1_c1"/>
   <flow id="168" begin="75600" end="77400" to="c1_e1" vehsPerHour="26" from="w1_c1"/>
   <flow id="169" begin="75600" end="77400" to="c1_w1" vehsPerHour="14" from="e1_c1"/>
   <flow id="170" begin="75600" end="77400" to="c1_s1" vehsPerHour="21" from="n1_c1"/>
   <flow id="171" begin="75600" end="77400" to="c1_n1" vehsPerHour="20" from="s1_c1"/>
   <flow id="172" begin="77400" end="79200" to="c1_e1" vehsPerHour="21" from="w1_c1"/>
   <flow id="173" begin="77400" end="79200" to="c1_w1" vehsPerHour="18" from="e1_c1"/>
   <flow id="174" begin="77400" end="79200" to="c1_s1" vehsPerHour="24" from="n1_c1"/>
   <flow id="175" begin="77400" end="79200" to="c1_n1" vehsPerHour="24" from="s1_c1"/>
   <flow id="176" begin="79200" end="81000" to="c1_e1" vehsPerHour="26" from="w1_c1"/>
   <flow id="177" begin="79200" end="81000" to="c1_w1" vehsPerHour="22" from="e1_c1"/>
   <flow id="178" begin="79200" end="81000" to="c1_s1" vehsPerHour="24" from="n1_c1"/>
   <flow id="179" begin="79200" end="81000" to="c1_n1" vehsPerHour="20" from="s1_c1"/>
   <flow id="180" begin="81000" end="82800" to="c1_e1" vehsPerHour="3" from="w1_c1"/>
   <flow id="181" begin="81000" end="82800" to="c1_w1" vehsPerHour="2" from="e1_c1"/>
   <flow id="182" begin="81000" end="82800" to="c1_s1" vehsPerHour="18" from="n1_c1"/>
   <flow id="183" begin="81000" end="82800" to="c1_n1" vehsPerHour="22" from="s1_c1"/>
   <flow id="184" begin="82800" end="84600" to="c1_e1" vehsPerHour="192" from="w1_c1"/>
   <flow id="185" begin="82800" end="84600" to="c1_w1" vehsPerHour="142" from="e1_c1"/>
   <flow id="186" begin="82800" end="84600" to="c1_s1" vehsPerHour="18" from="n1_c1"/>
   <flow id="187" begin="82800" end="84600" to="c1_n1" vehsPerHour="20" from="s1_c1"/>
   <flow id="188" begin="84600" end="86400" to="c1_e1" vehsPerHour="2" from="w1_c1"/>
   <flow id="189" begin="84600" end="86400" to="c1_w1" vehsPerHour="4" from="e1_c1"/>
   <flow id="190" begin="84600" end="86400" to="c1_s1" vehsPerHour="1" from="n1_c1"/>
   <flow id="191" begin="84600" end="86400" to="c1_n1" vehsPerHour="1" from="s1_c1"/>
   <flow id="192" begin="86400" end="88200" to="c1_e1" vehsPerHour="4" from="w1_c1"/>
   <flow id="193" begin="86400" end="88200" to="c1_w1" vehsPerHour="5" from="e1_c1"/>
   <flow id="194" begin="86400" end="88200" to="c1_s1" vehsPerHour="5" from="n1_c1"/>
   <flow id="195" begin="86400" end="88200" to="c1_n1" vehsPerHour="2" from="s1_c1"/>
   <flow id="196" begin="88200" end="90000" to="c1_e1" vehsPerHour="3" from="w1_c1"/>
   <flow id="197" begin="88200" end="90000" to="c1_w1" vehsPerHour="4" from="e1_c1"/>
   <flow id="198" begin="88200" end="90000" to="c1_s1" vehsPerHour="4" from="n1_c1"/>
   <flow id="199" begin="88200" end="90000" to="c1_n1" vehsPerHour="3" from="s1_c1"/>
   <flow id="200" begin="90000" end="91800" to="c1_e1" vehsPerHour="3" from="w1_c1"/>
   <flow id="201" begin="90000" end="91800" to="c1_w1" vehsPerHour="3" from="e1_c1"/>
   <flow id="202" begin="90000" end="91800" to="c1_s1" vehsPerHour="5" from="n1_c1"/>
   <flow id="203" begin="90000" end="91800" to="c1_n1" vehsPerHour="1" from="s1_c1"/>
   <flow id="204" begin="91800" end="93600" to="c1_e1" vehsPerHour="5" from="w1_c1"/>
   <flow id="205" begin="91800" end="93600" to="c1_w1" vehsPerHour="2" from="e1_c1"/>
   <flow id="206" begin="91800" end="93600" to="c1_s1" vehsPerHour="5" from="n1_c1"/>
   <flow id="207" begin="91800" end="93600" to="c1_n1" vehsPerHour="5" from="s1_c1"/>
   <flow id="208" begin="93600" end="95400" to="c1_e1" vehsPerHour="1" from="w1_c1"/>
   <flow id="209" begin="93600" end="95400" to="c1_w1" vehsPerHour="3" from="e1_c1"/>
   <flow id="210" begin="93600" end="95400" to="c1_s1" vehsPerHour="2" from="n1_c1"/>
   <flow id="211" begin="93600" end="95400" to="c1_n1" vehsPerHour="5" from="s1_c1"/>
   <flow id="212" begin="95400" end="97200" to="c1_e1" vehsPerHour="3" from="w1_c1"/>
   <flow id="213" begin="95400" end="97200" to="c1_w1" vehsPerHour="4" from="e1_c1"/>
   <flow id="214" begin="95400" end="97200" to="c1_s1" vehsPerHour="2" from="n1_c1"/>
   <flow id="215" begin="95400" end="97200" to="c1_n1" vehsPerHour="3" from="s1_c1"/>
   <flow id="216" begin="97200" end="99000" to="c1_e1" vehsPerHour="5" from="w1_c1"/>
   <flow id="217" begin="97200" end="99000" to="c1_w1" vehsPerHour="2" from="e1_c1"/>
   <flow id="218" begin="97200" end="99000" to="c1_s1" vehsPerHour="2" from="n1_c1"/>
   <flow id="219" begin="97200" end="99000" to="c1_n1" vehsPerHour="3" from="s1_c1"/>
   <flow id="220" begin="99000" end="100800" to="c1_e1" vehsPerHour="5" from="w1_c1"/>
   <flow id="221" begin="99000" end="100800" to="c1_w1" vehsPerHour="5" from="e1_c1"/>
   <flow id="222" begin="99000" end="100800" to="c1_s1" vehsPerHour="3" from="n1_c1"/>
   <flow id="223" begin="99000" end="100800" to="c1_n1" vehsPerHour="2" from="s1_c1"/>
   <flow id="224" begin="100800" end="102600" to="c1_e1" vehsPerHour="1" from="w1_c1"/>
   <flow id="225" begin="100800" end="102600" to="c1_w1" vehsPerHour="3" from="e1_c1"/>
   <flow id="226" begin="100800" end="102600" to="c1_s1" vehsPerHour="1" from="n1_c1"/>
   <flow id="227" begin="100800" end="102600" to="c1_n1" vehsPerHour="5" from="s1_c1"/>
   <flow id="228" begin="102600" end="104400" to="c1_e1" vehsPerHour="5" from="w1_c1"/>
   <flow id="229" begin="102600" end="104400" to="c1_w1" vehsPerHour="5" from="e1_c1"/>
   <flow id="230" begin="102600" end="104400" to="c1_s1" vehsPerHour="2" from="n1_c1"/>
   <flow id="231" begin="102600" end="104400" to="c1_n1" vehsPerHour="5" from="s1_c1"/>
   <flow id="232" begin="104400" end="106200" to="c1_e1" vehsPerHour="1" from="w1_c1"/>
   <flow id="233" begin="104400" end="106200" to="c1_w1" vehsPerHour="5" from="e1_c1"/>
   <flow id="234" begin="104400" end="106200" to="c1_s1" vehsPerHour="5" from="n1_c1"/>
   <flow id="235" begin="104400" end="106200" to="c1_n1" vehsPerHour="5" from="s1_c1"/>
   <flow id="236" begin="106200" end="108000" to="c1_e1" vehsPerHour="2" from="w1_c1"/>
   <flow id="237" begin="106200" end="108000" to="c1_w1" vehsPerHour="5" from="e1_c1"/>
   <flow id="238" begin="106200" end="108000" to="c1_s1" vehsPerHour="4" from="n1_c1"/>
   <flow id="239" begin="106200" end="108000" to="c1_n1" vehsPerHour="5" from="s1_c1"/>
   <flow id="240" begin="108000" end="109800" to="c1_e1" vehsPerHour="1" from="w1_c1"/>
   <flow id="241" begin="108000" end="109800" to="c1_w1" vehsPerHour="4" from="e1_c1"/>
   <flow id="242" begin="108000" end="109800" to="c1_s1" vehsPerHour="18" from="n1_c1"/>
   <flow id="243" begin="108000" end="109800" to="c1_n1" vehsPerHour="25" from="s1_c1"/>
   <flow id="244" begin="109800" end="111600" to="c1_e1" vehsPerHour="4" from="w1_c1"/>
   <flow id="245" begin="109800" end="111600" to="c1_w1" vehsPerHour="2" from="e1_c1"/>
   <flow id="246" begin="109800" end="111600" to="c1_s1" vehsPerHour="18" from="n1_c1"/>
   <flow id="247" begin="109800" end="111600" to="c1_n1" vehsPerHour="15" from="s1_c1"/>
   <flow id="248" begin="111600" end="113400" to="c1_e1" vehsPerHour="624" from="w1_c1"/>
   <flow id="249" begin="111600" end="113400" to="c1_w1" vehsPerHour="510" from="e1_c1"/>
   <flow id="250" begin="111600" end="113400" to="c1_s1" vehsPerHour="188" from="n1_c1"/>
   <flow id="251" begin="111600" end="113400" to="c1_n1" vehsPerHour="194" from="s1_c1"/>
   <flow id="252" begin="113400" end="115200" to="c1_e1" vehsPerHour="18" from="w1_c1"/>
   <flow id="253" begin="113400" end="115200" to="c1_w1" vehsPerHour="24" from="e1_c1"/>
   <flow id="254" begin="113400" end="115200" to="c1_s1" vehsPerHour="129" from="n1_c1"/>
   <flow id="255" begin="113400" end="115200" to="c1_n1" vehsPerHour="147" from="s1_c1"/>
   <flow id="256" begin="115200" end="117000" to="c1_e1" vehsPerHour="192" from="w1_c1"/>
   <flow id="257" begin="115200" end="117000" to="c1_w1" vehsPerHour="119" from="e1_c1"/>
   <flow id="258" begin="115200" end="117000" to="c1_s1" vehsPerHour="360" from="n1_c1"/>
   <flow id="259" begin="115200" end="117000" to="c1_n1" vehsPerHour="559" from="s1_c1"/>
   <flow id="260" begin="117000" end="118800" to="c1_e1" vehsPerHour="166" from="w1_c1"/>
   <flow id="261" begin="117000" end="118800" to="c1_w1" vehsPerHour="188" from="e1_c1"/>
   <flow id="262" begin="117000" end="118800" to="c1_s1" vehsPerHour="427" from="n1_c1"/>
   <flow id="263" begin="117000" end="118800" to="c1_n1" vehsPerHour="441" from="s1_c1"/>
   <flow id="264" begin="118800" end="120600" to="c1_e1" vehsPerHour="129" from="w1_c1"/>
   <flow id="265" begin="118800" end="120600" to="c1_w1" vehsPerHour="135" from="e1_c1"/>
   <flow id="266" begin="118800" end="120600" to="c1_s1" vehsPerHour="450" from="n1_c1"/>
   <flow id="267" begin="118800" end="120600" to="c1_n1" vehsPerHour="504" from="s1_c1"/>
   <flow id="268" begin="120600" end="122400" to="c1_e1" vehsPerHour="20" from="w1_c1"/>
   <flow id="269" begin="120600" end="122400" to="c1_w1" vehsPerHour="18" from="e1_c1"/>
   <flow id="270" begin="120600" end="122400" to="c1_s1" vehsPerHour="611" from="n1_c1"/>
   <flow id="271" begin="120600" end="122400" to="c1_n1" vehsPerHour="378" from="s1_c1"/>
   <flow id="272" begin="122400" end="124200" to="c1_e1" vehsPerHour="20" from="w1_c1"/>
   <flow id="273" begin="122400" end="124200" to="c1_w1" vehsPerHour="25" from="e1_c1"/>
   <flow id="274" begin="122400" end="124200" to="c1_s1" vehsPerHour="111" from="n1_c1"/>
   <flow id="275" begin="122400" end="124200" to="c1_n1" vehsPerHour="120" from="s1_c1"/>
   <flow id="276" begin="124200" end="126000" to="c1_e1" vehsPerHour="15" from="w1_c1"/>
   <flow id="277" begin="124200" end="126000" to="c1_w1" vehsPerHour="25" from="e1_c1"/>
   <flow id="278" begin="124200" end="126000" to="c1_s1" vehsPerHour="151" from="n1_c1"/>
   <flow id="279" begin="124200" end="126000" to="c1_n1" vehsPerHour="144" from="s1_c1"/>
   <flow id="280" begin="126000" end="127800" to="c1_e1" vehsPerHour="24" from="w1_c1"/>
   <flow id="281" begin="126000" end="127800" to="c1_w1" vehsPerHour="22" from="e1_c1"/>
   <flow id="282" begin="126000" end="127800" to="c1_s1" vehsPerHour="176" from="n1_c1"/>
   <flow id="283" begin="126000" end="127800" to="c1_n1" vehsPerHour="105" from="s1_c1"/>
   <flow id="284" begin="127800" end="129600" to="c1_e1" vehsPerHour="16" from="w1_c1"/>
   <flow id="285" begin="127800" end="129600" to="c1_w1" vehsPerHour="22" from="e1_c1"/>
   <flow id="286" begin="127800" end="129600" to="c1_s1" vehsPerHour="127" from="n1_c1"/>
   <flow id="287" begin="127800" end="129600" to="c1_n1" vehsPerHour="130" from="s1_c1"/>
   <flow id="288" begin="129600" end="131400" to="c1_e1" vehsPerHour="24" from="w1_c1"/>
   <flow id="289" begin="129600" end="131400" to="c1_w1" vehsPerHour="19" from="e1_c1"/>
   <flow id="290" begin="129600" end="131400" to="c1_s1" vehsPerHour="189" from="n1_c1"/>
   <flow id="291" begin="129600" end="131400" to="c1_n1" vehsPerHour="141" from="s1_c1"/>
   <flow id="292" begin="131400" end="133200" to="c1_e1" vehsPerHour="158" from="w1_c1"/>
   <flow id="293" begin="131400" end="133200" to="c1_w1" vehsPerHour="122" from="e1_c1"/>
   <flow id="294" begin="131400" end="133200" to="c1_s1" vehsPerHour="146" from="n1_c1"/>
   <flow id="295" begin="131400" end="133200" to="c1_n1" vehsPerHour="184" from="s1_c1"/>
   <flow id="296" begin="133200" end="135000" to="c1_e1" vehsPerHour="117" from="w1_c1"/>
   <flow id="297" begin="133200" end="135000" to="c1_w1" vehsPerHour="178" from="e1_c1"/>
   <flow id="298" begin="133200" end="135000" to="c1_s1" vehsPerHour="172" from="n1_c1"/>
   <flow id="299" begin="133200" end="135000" to="c1_n1" vehsPerHour="162" from="s1_c1"/>
   <flow id="300" begin="135000" end="136800" to="c1_e1" vehsPerHour="446" from="w1_c1"/>
   <flow id="301" begin="135000" end="136800" to="c1_w1" vehsPerHour="458" from="e1_c1"/>
   <flow id="302" begin="135000" end="136800" to="c1_s1" vehsPerHour="535" from="n1_c1"/>
   <flow id="303" begin="135000" end="136800" to="c1_n1" vehsPerHour="398" from="s1_c1"/>
   <flow id="304" begin="136800" end="138600" to="c1_e1" vehsPerHour="160" from="w1_c1"/>
   <flow id="305" begin="136800" end="138600" to="c1_w1" vehsPerHour="142" from="e1_c1"/>
   <flow id="306" begin="136800" end="138600" to="c1_s1" vehsPerHour="595" from="n1_c1"/>
   <flow id="307" begin="136800" end="138600" to="c1_n1" vehsPerHour="445" from="s1_c1"/>
   <flow id="308" begin="138600" end="140400" to="c1_e1" vehsPerHour="149" from="w1_c1"/>
   <flow id="309" begin="138600" end="140400" to="c1_w1" vehsPerHour="188" from="e1_c1"/>
   <flow id="310" begin="138600" end="140400" to="c1_s1" vehsPerHour="568" from="n1_c1"/>
   <flow id="311" begin="138600" end="140400" to="c1_n1" vehsPerHour="427" from="s1_c1"/>
   <flow id="312" begin="140400" end="142200" to="c1_e1" vehsPerHour="118" from="w1_c1"/>
   <flow id="313" begin="140400" end="142200" to="c1_w1" vehsPerHour="192" from="e1_c1"/>
   <flow id="314" begin="140400" end="142200" to="c1_s1" vehsPerHour="471" from="n1_c1"/>
   <flow id="315" begin="140400" end="142200" to="c1_n1" vehsPerHour="588" from="s1_c1"/>
   <flow id="316" begin="142200" end="144000" to="c1_e1" vehsPerHour="25" from="w1_c1"/>
   <flow id="317" begin="142200" end="144000" to="c1_w1" vehsPerHour="23" from="e1_c1"/>
   <flow id="318" begin="142200" end="144000" to="c1_s1" vehsPerHour="120" from="n1_c1"/>
   <flow id="319" begin="142200" end="144000" to="c1_n1" vehsPerHour="138" from="s1_c1"/>
   <flow id="320" begin="144000" end="145800" to="c1_e1" vehsPerHour="1" from="w1_c1"/>
   <flow id="321" begin="144000" end="145800" to="c1_w1" vehsPerHour="5" from="e1_c1"/>
   <flow id="322" begin="144000" end="145800" to="c1_s1" vehsPerHour="1" from="n1_c1"/>
   <flow id="323" begin="144000" end="145800" to="c1_n1" vehsPerHour="1" from="s1_c1"/>
   <flow id="324" begin="145800" end="147600" to="c1_e1" vehsPerHour="25" from="w1_c1"/>
   <flow id="325" begin="145800" end="147600" to="c1_w1" vehsPerHour="24" from="e1_c1"/>
   <flow id="326" begin="145800" end="147600" to="c1_s1" vehsPerHour="19" from="n1_c1"/>
   <flow id="327" begin="145800" end="147600" to="c1_n1" vehsPerHour="19" from="s1_c1"/>
   <flow id="328" begin="147600" end="149400" to="c1_e1" vehsPerHour="14" from="w1_c1"/>
   <flow id="329" begin="147600" end="149400" to="c1_w1" vehsPerHour="20" from="e1_c1"/>
   <flow id="330" begin="147600" end="149400" to="c1_s1" vehsPerHour="148" from="n1_c1"/>
   <flow id="331" begin="147600" end="149400" to="c1_n1" vehsPerHour="107" from="s1_c1"/>
   <flow id="332" begin="149400" end="151200" to="c1_e1" vehsPerHour="24" from="w1_c1"/>
   <flow id="333" begin="149400" end="151200" to="c1_w1" vehsPerHour="19" from="e1_c1"/>
   <flow id="334" begin="149400" end="151200" to="c1_s1" vehsPerHour="156" from="n1_c1"/>
   <flow id="335" begin="149400" end="151200" to="c1_n1" vehsPerHour="108" from="s1_c1"/>
   <flow id="336" begin="151200" end="153000" to="c1_e1" vehsPerHour="23" from="w1_c1"/>
   <flow id="337" begin="151200" end="153000" to="c1_w1" vehsPerHour="20" from="e1_c1"/>
   <flow id="338" begin="151200" end="153000" to="c1_s1" vehsPerHour="135" from="n1_c1"/>
   <flow id="339" begin="151200" end="153000" to="c1_n1" vehsPerHour="108" from="s1_c1"/>
   <flow id="340" begin="153000" end="154800" to="c1_e1" vehsPerHour="190" from="w1_c1"/>
   <flow id="341" begin="153000" end="154800" to="c1_w1" vehsPerHour="170" from="e1_c1"/>
   <flow id="342" begin="153000" end="154800" to="c1_s1" vehsPerHour="18" from="n1_c1"/>
   <flow id="343" begin="153000" end="154800" to="c1_n1" vehsPerHour="24" from="s1_c1"/>