<?xml version="1.0" ?>
<additional>
   <tlLogic id="c1" programID="static_program" type="static">
      <phase duration="30" state="ggggrrrrggggrrrr"/>
      <phase duration="5" state="yyggrrrryyggrrrr"/>
      <phase duration="5" state="rrggrrrrrrggrrrr"/>
      <phase duration="5" state="rryyrrrrrryyrrrr"/>
      <phase duration="30" state="rrrrggggrrrrgggg"/>
      <phase duration="5" state="rrrryyggrrrryygg"/>
      <phase duration="5" state="rrrrrrggrrrrrrgg"/>
      <phase duration="5" state="rrrrrryyrrrrrryy"/>
   </tlLogic>
   <tlLogic id="c1" programID="actuated_program" type="actuated">
      <phase duration="30" minDur="20" maxDur="40" state="ggggrrrrggggrrrr"/>
      <phase duration="5" minDur="3" maxDur="7" state="yyggrrrryyggrrrr"/>
      <phase duration="5" minDur="3" maxDur="7" state="rrggrrrrrrggrrrr"/>
      <phase duration="5" minDur="3" maxDur="7" state="rryyrrrrrryyrrrr"/>
      <phase duration="30" minDur="20" maxDur="40" state="rrrrggggrrrrgggg"/>
      <phase duration="5" minDur="3" maxDur="7" state="rrrryyggrrrryygg"/>
      <phase duration="5" minDur="3" maxDur="7" state="rrrrrrggrrrrrrgg"/>
      <phase duration="5" minDur="3" maxDur="7" state="rrrrrryyrrrrrryy"/>
   </tlLogic>
   <tlLogic id="c1" programID="actuated_program_time_gap" type="actuated">
      <param key="max-gap" value="3.0"/>
      <param key="detector-gap" value="2.0"/>
      <param key="passing-time" value="2.0"/>
      <param key="vTypes" value=""/>
      <param key="show-detectors" value="false"/>
      <param key="file" value="NULL"/>
      <param key="freq" value="300"/>
      <phase duration="30" minDur="20" maxDur="40" state="ggggrrrrggggrrrr"/>
      <phase duration="5" minDur="3" maxDur="7" state="yyggrrrryyggrrrr"/>
      <phase duration="5" minDur="3" maxDur="7" state="rrggrrrrrrggrrrr"/>
      <phase duration="5" minDur="3" maxDur="7" state="rryyrrrrrryyrrrr"/>
      <phase duration="30" minDur="20" maxDur="40" state="rrrrggggrrrrgggg"/>
      <phase duration="5" minDur="3" maxDur="7" state="rrrryyggrrrryygg"/>
      <phase duration="5" minDur="3" maxDur="7" state="rrrrrrggrrrrrrgg"/>
      <phase duration="5" minDur="3" maxDur="7" state="rrrrrryyrrrrrryy"/>
   </tlLogic>
   <tlLogic id="c1" programID="actuated_program_time_loss" type="actuated">
      <param key="detectorRange" value="100"/>
      <param key="minTimeLoss" value="2"/>
      <param key="show-detectors" value="false"/>
      <param key="file" value="NULL"/>
      <param key="freq" value="300"/>
      <phase duration="30" minDur="20" maxDur="40" state="ggggrrrrggggrrrr"/>
      <phase duration="5" minDur="3" maxDur="7" state="yyggrrrryyggrrrr"/>
      <phase duration="5" minDur="3" maxDur="7" state="rrggrrrrrrggrrrr"/>
      <phase duration="5" minDur="3" maxDur="7" state="rryyrrrrrryyrrrr"/>
      <phase duration="30" minDur="20" maxDur="40" state="rrrrggggrrrrgggg"/>
      <phase duration="5" minDur="3" maxDur="7" state="rrrryyggrrrryygg"/>
      <phase duration="5" minDur="3" maxDur="7" state="rrrrrrggrrrrrrgg"/>
      <phase duration="5" minDur="3" maxDur="7" state="rrrrrryyrrrrrryy"/>
   </tlLogic>
</additional>
