<?xml version="1.0" encoding="UTF-8"?>
<routes 
        xmlns:xsi="http://www.w3.org/2001/XMLSchema-instance" 
        xsi:noNamespaceSchemaLocation="http://sumo.dlr.de/xsd/routes_file.xsd">
		<trip id="0" depart="0" from="n1i" to="s1o"/>
		<trip id="1" depart="2" from="w1i" to="e1o"/>
		<trip id="2" depart="4" from="n1i" to="e1o"/>
		<trip id="3" depart="6" from="s1i" to="e1o"/>
		<trip id="4" depart="8" from="w1i" to="e1o"/>
		<trip id="5" depart="10" from="e1i" to="s1o"/>
		<trip id="6" depart="12" from="e1i" to="w1o"/>
		<trip id="7" depart="14" from="e1i" to="w1o"/>
		<trip id="8" depart="16" from="s1i" to="w1o"/>
		<trip id="9" depart="18" from="s1i" to="e1o"/>
		<trip id="10" depart="20" from="e1i" to="w1o"/>
		<trip id="11" depart="22" from="e1i" to="n1o"/>
		<trip id="12" depart="24" from="w1i" to="s1o"/>
		<trip id="13" depart="26" from="n1i" to="w1o"/>
		<trip id="14" depart="28" from="w1i" to="n1o"/>
		<trip id="15" depart="30" from="e1i" to="n1o"/>
		<trip id="16" depart="32" from="w1i" to="s1o"/>
		<trip id="17" depart="34" from="n1i" to="e1o"/>
		<trip id="18" depart="36" from="e1i" to="w1o"/>
		<trip id="19" depart="38" from="s1i" to="n1o"/>
		<trip id="20" depart="40" from="s1i" to="e1o"/>
		<trip id="21" depart="42" from="s1i" to="e1o"/>
		<trip id="22" depart="44" from="n1i" to="s1o"/>
		<trip id="23" depart="46" from="s1i" to="e1o"/>
		<trip id="24" depart="48" from="e1i" to="s1o"/>
		<trip id="25" depart="50" from="s1i" to="n1o"/>
		<trip id="26" depart="52" from="e1i" to="n1o"/>
		<trip id="27" depart="54" from="n1i" to="e1o"/>
		<trip id="28" depart="56" from="e1i" to="n1o"/>
		<trip id="29" depart="58" from="w1i" to="e1o"/>
		<trip id="30" depart="60" from="n1i" to="e1o"/>
		<trip id="31" depart="62" from="n1i" to="s1o"/>
		<trip id="32" depart="64" from="w1i" to="e1o"/>
		<trip id="33" depart="66" from="e1i" to="s1o"/>
		<trip id="34" depart="68" from="s1i" to="e1o"/>
		<trip id="35" depart="70" from="e1i" to="w1o"/>
		<trip id="36" depart="72" from="e1i" to="w1o"/>
		<trip id="37" depart="74" from="e1i" to="n1o"/>
		<trip id="38" depart="76" from="n1i" to="w1o"/>
		<trip id="39" depart="78" from="n1i" to="e1o"/>
		<trip id="40" depart="80" from="s1i" to="w1o"/>
		<trip id="41" depart="82" from="n1i" to="e1o"/>
		<trip id="42" depart="84" from="n1i" to="w1o"/>
		<trip id="43" depart="86" from="w1i" to="e1o"/>
		<trip id="44" depart="88" from="w1i" to="n1o"/>
		<trip id="45" depart="90" from="w1i" to="s1o"/>
		<trip id="46" depart="92" from="e1i" to="s1o"/>
		<trip id="47" depart="94" from="w1i" to="e1o"/>
		<trip id="48" depart="96" from="n1i" to="s1o"/>
		<trip id="49" depart="98" from="w1i" to="n1o"/>
		<trip id="50" depart="100" from="n1i" to="w1o"/>
		<trip id="51" depart="102" from="s1i" to="w1o"/>
		<trip id="52" depart="104" from="e1i" to="s1o"/>
		<trip id="53" depart="106" from="e1i" to="s1o"/>
		<trip id="54" depart="108" from="w1i" to="n1o"/>
		<trip id="55" depart="110" from="s1i" to="n1o"/>
		<trip id="56" depart="112" from="w1i" to="n1o"/>
		<trip id="57" depart="114" from="s1i" to="w1o"/>
		<trip id="58" depart="116" from="e1i" to="s1o"/>
		<trip id="59" depart="118" from="s1i" to="n1o"/>
		<trip id="60" depart="120" from="e1i" to="n1o"/>
		<trip id="61" depart="122" from="n1i" to="e1o"/>
		<trip id="62" depart="124" from="n1i" to="w1o"/>
		<trip id="63" depart="126" from="s1i" to="e1o"/>
		<trip id="64" depart="128" from="w1i" to="n1o"/>
		<trip id="65" depart="130" from="w1i" to="s1o"/>
		<trip id="66" depart="132" from="n1i" to="e1o"/>
		<trip id="67" depart="134" from="w1i" to="n1o"/>
		<trip id="68" depart="136" from="n1i" to="w1o"/>
		<trip id="69" depart="138" from="s1i" to="n1o"/>
		<trip id="70" depart="140" from="w1i" to="s1o"/>
		<trip id="71" depart="142" from="n1i" to="e1o"/>
		<trip id="72" depart="144" from="w1i" to="n1o"/>
		<trip id="73" depart="146" from="e1i" to="s1o"/>
		<trip id="74" depart="148" from="e1i" to="n1o"/>
		<trip id="75" depart="150" from="s1i" to="w1o"/>
		<trip id="76" depart="152" from="w1i" to="s1o"/>
		<trip id="77" depart="154" from="w1i" to="n1o"/>
		<trip id="78" depart="156" from="n1i" to="e1o"/>
		<trip id="79" depart="158" from="w1i" to="n1o"/>
		<trip id="80" depart="160" from="e1i" to="w1o"/>
		<trip id="81" depart="162" from="s1i" to="n1o"/>
		<trip id="82" depart="164" from="n1i" to="e1o"/>
		<trip id="83" depart="166" from="e1i" to="n1o"/>
		<trip id="84" depart="168" from="e1i" to="w1o"/>
		<trip id="85" depart="170" from="e1i" to="n1o"/>
		<trip id="86" depart="172" from="e1i" to="n1o"/>
		<trip id="87" depart="174" from="e1i" to="w1o"/>
		<trip id="88" depart="176" from="s1i" to="n1o"/>
		<trip id="89" depart="178" from="e1i" to="s1o"/>
		<trip id="90" depart="180" from="e1i" to="n1o"/>
		<trip id="91" depart="182" from="w1i" to="s1o"/>
		<trip id="92" depart="184" from="w1i" to="s1o"/>
		<trip id="93" depart="186" from="n1i" to="e1o"/>
		<trip id="94" depart="188" from="s1i" to="w1o"/>
		<trip id="95" depart="190" from="n1i" to="e1o"/>
		<trip id="96" depart="192" from="n1i" to="e1o"/>
		<trip id="97" depart="194" from="s1i" to="n1o"/>
		<trip id="98" depart="196" from="s1i" to="n1o"/>
		<trip id="99" depart="198" from="e1i" to="w1o"/>
		<trip id="100" depart="200" from="n1i" to="s1o"/>
		<trip id="101" depart="202" from="e1i" to="w1o"/>
		<trip id="102" depart="204" from="w1i" to="e1o"/>
		<trip id="103" depart="206" from="n1i" to="s1o"/>
		<trip id="104" depart="208" from="w1i" to="e1o"/>
		<trip id="105" depart="210" from="n1i" to="e1o"/>
		<trip id="106" depart="212" from="w1i" to="n1o"/>
		<trip id="107" depart="214" from="s1i" to="e1o"/>
		<trip id="108" depart="216" from="s1i" to="e1o"/>
		<trip id="109" depart="218" from="e1i" to="s1o"/>
		<trip id="110" depart="220" from="n1i" to="w1o"/>
		<trip id="111" depart="222" from="n1i" to="e1o"/>
		<trip id="112" depart="224" from="w1i" to="n1o"/>
		<trip id="113" depart="226" from="w1i" to="s1o"/>
		<trip id="114" depart="228" from="e1i" to="s1o"/>
		<trip id="115" depart="230" from="w1i" to="s1o"/>
		<trip id="116" depart="232" from="e1i" to="s1o"/>
		<trip id="117" depart="234" from="e1i" to="w1o"/>
		<trip id="118" depart="236" from="w1i" to="s1o"/>
		<trip id="119" depart="238" from="s1i" to="n1o"/>
		<trip id="120" depart="240" from="s1i" to="e1o"/>
		<trip id="121" depart="242" from="s1i" to="e1o"/>
		<trip id="122" depart="244" from="n1i" to="e1o"/>
		<trip id="123" depart="246" from="w1i" to="e1o"/>
		<trip id="124" depart="248" from="e1i" to="n1o"/>
		<trip id="125" depart="250" from="e1i" to="n1o"/>
		<trip id="126" depart="252" from="n1i" to="e1o"/>
		<trip id="127" depart="254" from="w1i" to="e1o"/>
		<trip id="128" depart="256" from="n1i" to="w1o"/>
		<trip id="129" depart="258" from="n1i" to="s1o"/>
		<trip id="130" depart="260" from="n1i" to="w1o"/>
		<trip id="131" depart="262" from="s1i" to="n1o"/>
		<trip id="132" depart="264" from="e1i" to="w1o"/>
		<trip id="133" depart="266" from="n1i" to="e1o"/>
		<trip id="134" depart="268" from="w1i" to="s1o"/>
		<trip id="135" depart="270" from="w1i" to="e1o"/>
		<trip id="136" depart="272" from="e1i" to="w1o"/>
		<trip id="137" depart="274" from="s1i" to="w1o"/>
		<trip id="138" depart="276" from="n1i" to="e1o"/>
		<trip id="139" depart="278" from="s1i" to="w1o"/>
		<trip id="140" depart="280" from="w1i" to="s1o"/>
		<trip id="141" depart="282" from="e1i" to="n1o"/>
		<trip id="142" depart="284" from="s1i" to="e1o"/>
		<trip id="143" depart="286" from="w1i" to="s1o"/>
		<trip id="144" depart="288" from="e1i" to="s1o"/>
		<trip id="145" depart="290" from="n1i" to="s1o"/>
		<trip id="146" depart="292" from="e1i" to="w1o"/>
		<trip id="147" depart="294" from="w1i" to="s1o"/>
		<trip id="148" depart="296" from="e1i" to="s1o"/>
		<trip id="149" depart="298" from="w1i" to="s1o"/>
		<trip id="150" depart="300" from="s1i" to="n1o"/>
		<trip id="151" depart="302" from="n1i" to="s1o"/>
		<trip id="152" depart="304" from="s1i" to="n1o"/>
		<trip id="153" depart="306" from="n1i" to="s1o"/>
		<trip id="154" depart="308" from="s1i" to="e1o"/>
		<trip id="155" depart="310" from="s1i" to="w1o"/>
		<trip id="156" depart="312" from="s1i" to="w1o"/>
		<trip id="157" depart="314" from="w1i" to="n1o"/>
		<trip id="158" depart="316" from="s1i" to="n1o"/>
		<trip id="159" depart="318" from="n1i" to="e1o"/>
		<trip id="160" depart="320" from="s1i" to="e1o"/>
		<trip id="161" depart="322" from="w1i" to="e1o"/>
		<trip id="162" depart="324" from="w1i" to="e1o"/>
		<trip id="163" depart="326" from="n1i" to="s1o"/>
		<trip id="164" depart="328" from="e1i" to="w1o"/>
		<trip id="165" depart="330" from="e1i" to="w1o"/>
		<trip id="166" depart="332" from="e1i" to="w1o"/>
		<trip id="167" depart="334" from="w1i" to="e1o"/>
		<trip id="168" depart="336" from="e1i" to="n1o"/>
		<trip id="169" depart="338" from="n1i" to="e1o"/>
		<trip id="170" depart="340" from="n1i" to="e1o"/>
		<trip id="171" depart="342" from="s1i" to="w1o"/>
		<trip id="172" depart="344" from="n1i" to="w1o"/>
		<trip id="173" depart="346" from="n1i" to="w1o"/>
		<trip id="174" depart="348" from="w1i" to="e1o"/>
		<trip id="175" depart="350" from="s1i" to="w1o"/>
		<trip id="176" depart="352" from="n1i" to="e1o"/>
		<trip id="177" depart="354" from="s1i" to="n1o"/>
		<trip id="178" depart="356" from="w1i" to="e1o"/>
		<trip id="179" depart="358" from="e1i" to="w1o"/>
		<trip id="180" depart="360" from="n1i" to="w1o"/>
		<trip id="181" depart="362" from="n1i" to="w1o"/>
		<trip id="182" depart="364" from="w1i" to="s1o"/>
		<trip id="183" depart="366" from="e1i" to="n1o"/>
		<trip id="184" depart="368" from="e1i" to="s1o"/>
		<trip id="185" depart="370" from="n1i" to="w1o"/>
		<trip id="186" depart="372" from="e1i" to="w1o"/>
		<trip id="187" depart="374" from="n1i" to="e1o"/>
		<trip id="188" depart="376" from="n1i" to="w1o"/>
		<trip id="189" depart="378" from="s1i" to="e1o"/>
		<trip id="190" depart="380" from="n1i" to="s1o"/>
		<trip id="191" depart="382" from="e1i" to="w1o"/>
		<trip id="192" depart="384" from="s1i" to="w1o"/>
		<trip id="193" depart="386" from="s1i" to="e1o"/>
		<trip id="194" depart="388" from="e1i" to="n1o"/>
		<trip id="195" depart="390" from="e1i" to="s1o"/>
		<trip id="196" depart="392" from="s1i" to="n1o"/>
		<trip id="197" depart="394" from="e1i" to="w1o"/>
		<trip id="198" depart="396" from="s1i" to="e1o"/>
		<trip id="199" depart="398" from="n1i" to="e1o"/>
	</routes>
