<?xml version="1.0" encoding="UTF-8"?>
<nodes 
        xmlns:xsi="http://www.w3.org/2001/XMLSchema-instance" xsi:noNamespaceSchemaLocation=
        "http://sumo.dlr.de/xsd/nodes_file.xsd">
  <node id="n1" x="500" y="1500" type="priority"/> 
  <node id="w1" x="0" y="1000" type="priority"/> 
  <node id="c1" x="500" y="1000" type="traffic_light"/> 
  <node id="e1" x="1000" y="1000" type="priority"/> 
  <node id="s1" x="500" y="500" type="priority"/> 
</nodes>
