<?xml version="1.0" encoding="UTF-8"?>

<!-- generated on Thu Sep 16 14:20:18 2021 by Eclipse SUMO netconvert Version v1_1_0+0000-2147d155b1
<configuration xmlns:xsi="http://www.w3.org/2001/XMLSchema-instance" xsi:noNamespaceSchemaLocation="http://sumo.dlr.de/xsd/netconvertConfiguration.xsd">

    <input>
        <node-files value="output/topology.nod.xml"/>
        <edge-files value="output/topology.edg.xml"/>
    </input>

    <output>
        <output-file value="output/topology.net.xml"/>
    </output>

    <junctions>
        <no-turnarounds value="true"/>
    </junctions>

</configuration>
-->

<net version="1.1" junctionCornerDetail="5" limitTurnSpeed="5.50" xmlns:xsi="http://www.w3.org/2001/XMLSchema-instance" xsi:noNamespaceSchemaLocation="http://sumo.dlr.de/xsd/net_file.xsd">

    <location netOffset="0.00,-500.00" convBoundary="0.00,0.00,1000.00,1000.00" origBoundary="0.00,500.00,1000.00,1500.00" projParameter="!"/>

    <edge id=":c1_0" function="internal">
        <lane id=":c1_0_0" index="0" speed="6.51" length="9.03" shape="498.40,507.20 498.05,504.75 497.00,503.00 495.25,501.95 492.80,501.60"/>
    </edge>
    <edge id=":c1_1" function="internal">
        <lane id=":c1_1_0" index="0" speed="13.89" length="14.40" shape="498.40,507.20 498.40,492.80"/>
    </edge>
    <edge id=":c1_2" function="internal">
        <lane id=":c1_2_0" index="0" speed="8.00" length="5.93" shape="498.40,507.20 498.95,503.35 500.00,501.60"/>
    </edge>
    <edge id=":c1_12" function="internal">
        <lane id=":c1_12_0" index="0" speed="8.00" length="8.26" shape="500.00,501.60 500.60,500.60 503.35,498.95 507.20,498.40"/>
    </edge>
    <edge id=":c1_3" function="internal">
        <lane id=":c1_3_0" index="0" speed="6.51" length="9.03" shape="507.20,501.60 504.75,501.95 503.00,503.00 501.95,504.75 501.60,507.20"/>
    </edge>
    <edge id=":c1_4" function="internal">
        <lane id=":c1_4_0" index="0" speed="13.89" length="14.40" shape="507.20,501.60 492.80,501.60"/>
    </edge>
    <edge id=":c1_5" function="internal">
        <lane id=":c1_5_0" index="0" speed="8.00" length="5.93" shape="507.20,501.60 503.35,501.05 501.60,500.00"/>
    </edge>
    <edge id=":c1_13" function="internal">
        <lane id=":c1_13_0" index="0" speed="8.00" length="8.26" shape="501.60,500.00 500.60,499.40 498.95,496.65 498.40,492.80"/>
    </edge>
    <edge id=":c1_6" function="internal">
        <lane id=":c1_6_0" index="0" speed="6.51" length="9.03" shape="501.60,492.80 501.95,495.25 503.00,497.00 504.75,498.05 507.20,498.40"/>
    </edge>
    <edge id=":c1_7" function="internal">
        <lane id=":c1_7_0" index="0" speed="13.89" length="14.40" shape="501.60,492.80 501.60,507.20"/>
    </edge>
    <edge id=":c1_8" function="internal">
        <lane id=":c1_8_0" index="0" speed="8.00" length="5.93" shape="501.60,492.80 501.05,496.65 500.00,498.40"/>
    </edge>
    <edge id=":c1_14" function="internal">
        <lane id=":c1_14_0" index="0" speed="8.00" length="8.26" shape="500.00,498.40 499.40,499.40 496.65,501.05 492.80,501.60"/>
    </edge>
    <edge id=":c1_9" function="internal">
        <lane id=":c1_9_0" index="0" speed="6.51" length="9.03" shape="492.80,498.40 495.25,498.05 497.00,497.00 498.05,495.25 498.40,492.80"/>
    </edge>
    <edge id=":c1_10" function="internal">
        <lane id=":c1_10_0" index="0" speed="13.89" length="14.40" shape="492.80,498.40 507.20,498.40"/>
    </edge>
    <edge id=":c1_11" function="internal">
        <lane id=":c1_11_0" index="0" speed="8.00" length="5.93" shape="492.80,498.40 496.65,498.95 498.40,500.00"/>
    </edge>
    <edge id=":c1_15" function="internal">
        <lane id=":c1_15_0" index="0" speed="8.00" length="8.26" shape="498.40,500.00 499.40,500.60 501.05,503.35 501.60,507.20"/>
    </edge>

    <edge id="e1i" from="e1" to="c1" priority="-1">
        <lane id="e1i_0" index="0" speed="13.89" length="492.80" shape="1000.00,501.60 507.20,501.60"/>
    </edge>
    <edge id="e1o" from="c1" to="e1" priority="-1">
        <lane id="e1o_0" index="0" speed="13.89" length="492.80" shape="507.20,498.40 1000.00,498.40"/>
    </edge>
    <edge id="n1i" from="n1" to="c1" priority="-1">
        <lane id="n1i_0" index="0" speed="13.89" length="492.80" shape="498.40,1000.00 498.40,507.20"/>
    </edge>
    <edge id="n1o" from="c1" to="n1" priority="-1">
        <lane id="n1o_0" index="0" speed="13.89" length="492.80" shape="501.60,507.20 501.60,1000.00"/>
    </edge>
    <edge id="s1i" from="s1" to="c1" priority="-1">
        <lane id="s1i_0" index="0" speed="13.89" length="492.80" shape="501.60,0.00 501.60,492.80"/>
    </edge>
    <edge id="s1o" from="c1" to="s1" priority="-1">
        <lane id="s1o_0" index="0" speed="13.89" length="492.80" shape="498.40,492.80 498.40,0.00"/>
    </edge>
    <edge id="w1i" from="w1" to="c1" priority="-1">
        <lane id="w1i_0" index="0" speed="13.89" length="492.80" shape="0.00,498.40 492.80,498.40"/>
    </edge>
    <edge id="w1o" from="c1" to="w1" priority="-1">
        <lane id="w1o_0" index="0" speed="13.89" length="492.80" shape="492.80,501.60 0.00,501.60"/>
    </edge>

       <tlLogic id="c1" programID="static_program" type="static">
      <phase duration="30" state="ggggrrrrggggrrrr"/>
      <phase duration="5" state="yyggrrrryyggrrrr"/>
      <phase duration="5" state="rrggrrrrrrggrrrr"/>
      <phase duration="5" state="rryyrrrrrryyrrrr"/>
      <phase duration="30" state="rrrrggggrrrrgggg"/>
      <phase duration="5" state="rrrryyggrrrryygg"/>
      <phase duration="5" state="rrrrrrggrrrrrrgg"/>
      <phase duration="5" state="rrrrrryyrrrrrryy"/>
   </tlLogic>
   <tlLogic id="c1" programID="actuated_program" type="actuated">
      <phase duration="30" minDur="20" maxDur="40" state="ggggrrrrggggrrrr"/>
      <phase duration="5" minDur="3" maxDur="7" state="yyggrrrryyggrrrr"/>
      <phase duration="5" minDur="3" maxDur="7" state="rrggrrrrrrggrrrr"/>
      <phase duration="5" minDur="3" maxDur="7" state="rryyrrrrrryyrrrr"/>
      <phase duration="30" minDur="20" maxDur="40" state="rrrrggggrrrrgggg"/>
      <phase duration="5" minDur="3" maxDur="7" state="rrrryyggrrrryygg"/>
      <phase duration="5" minDur="3" maxDur="7" state="rrrrrrggrrrrrrgg"/>
      <phase duration="5" minDur="3" maxDur="7" state="rrrrrryyrrrrrryy"/>
   </tlLogic>
   <tlLogic id="c1" programID="actuated_program_time_gap" type="actuated">
      <param key="max-gap" value="3.0"/>
      <param key="detector-gap" value="2.0"/>
      <param key="passing-time" value="2.0"/>
      <param key="vTypes" value=""/>
      <param key="show-detectors" value="false"/>
      <param key="file" value="NULL"/>
      <param key="freq" value="300"/>
      <phase duration="30" minDur="20" maxDur="40" state="ggggrrrrggggrrrr"/>
      <phase duration="5" minDur="3" maxDur="7" state="yyggrrrryyggrrrr"/>
      <phase duration="5" minDur="3" maxDur="7" state="rrggrrrrrrggrrrr"/>
      <phase duration="5" minDur="3" maxDur="7" state="rryyrrrrrryyrrrr"/>
      <phase duration="30" minDur="20" maxDur="40" state="rrrrggggrrrrgggg"/>
      <phase duration="5" minDur="3" maxDur="7" state="rrrryyggrrrryygg"/>
      <phase duration="5" minDur="3" maxDur="7" state="rrrrrrggrrrrrrgg"/>
      <phase duration="5" minDur="3" maxDur="7" state="rrrrrryyrrrrrryy"/>
   </tlLogic>
   <tlLogic id="c1" programID="actuated_program_time_loss" type="actuated">
      <param key="detectorRange" value="100"/>
      <param key="minTimeLoss" value="2"/>
      <param key="show-detectors" value="false"/>
      <param key="file" value="NULL"/>
      <param key="freq" value="300"/>
      <phase duration="30" minDur="20" maxDur="40" state="ggggrrrrggggrrrr"/>
      <phase duration="5" minDur="3" maxDur="7" state="yyggrrrryyggrrrr"/>
      <phase duration="5" minDur="3" maxDur="7" state="rrggrrrrrrggrrrr"/>
      <phase duration="5" minDur="3" maxDur="7" state="rryyrrrrrryyrrrr"/>
      <phase duration="30" minDur="20" maxDur="40" state="rrrrggggrrrrgggg"/>
      <phase duration="5" minDur="3" maxDur="7" state="rrrryyggrrrryygg"/>
      <phase duration="5" minDur="3" maxDur="7" state="rrrrrrggrrrrrrgg"/>
      <phase duration="5" minDur="3" maxDur="7" state="rrrrrryyrrrrrryy"/>
   </tlLogic>

    <junction id="c1" type="traffic_light" x="500.00" y="500.00" incLanes="n1i_0 e1i_0 s1i_0 w1i_0" intLanes=":c1_0_0 :c1_1_0 :c1_12_0 :c1_3_0 :c1_4_0 :c1_13_0 :c1_6_0 :c1_7_0 :c1_14_0 :c1_9_0 :c1_10_0 :c1_15_0" shape="496.80,507.20 503.20,507.20 503.64,504.98 504.20,504.20 504.98,503.64 505.98,503.31 507.20,503.20 507.20,496.80 504.98,496.36 504.20,495.80 503.64,495.02 503.31,494.02 503.20,492.80 496.80,492.80 496.36,495.02 495.80,495.80 495.02,496.36 494.02,496.69 492.80,496.80 492.80,503.20 495.02,503.64 495.80,504.20 496.36,504.98 496.69,505.98">
        <request index="0"  response="000000000000" foes="000100010000" cont="0"/>
        <request index="1"  response="100000100000" foes="111100110000" cont="0"/>
        <request index="2"  response="100011100000" foes="110011110000" cont="1"/>
        <request index="3"  response="000010000000" foes="100010000000" cont="0"/>
        <request index="4"  response="000110000111" foes="100110000111" cont="0"/>
        <request index="5"  response="011110000110" foes="011110000110" cont="1"/>
        <request index="6"  response="000000000000" foes="010000000100" cont="0"/>
        <request index="7"  response="100000100000" foes="110000111100" cont="0"/>
        <request index="8"  response="100000100011" foes="110000110011" cont="1"/>
        <request index="9"  response="000000000010" foes="000000100010" cont="0"/>
        <request index="10" response="000111000110" foes="000111100110" cont="0"/>
        <request index="11" response="000110011110" foes="000110011110" cont="1"/>
    </junction>
    <junction id="e1" type="dead_end" x="1000.00" y="500.00" incLanes="e1o_0" intLanes="" shape="1000.00,500.00 1000.00,496.80 1000.00,500.00"/>
    <junction id="n1" type="dead_end" x="500.00" y="1000.00" incLanes="n1o_0" intLanes="" shape="500.00,1000.00 503.20,1000.00 500.00,1000.00"/>
    <junction id="s1" type="dead_end" x="500.00" y="0.00" incLanes="s1o_0" intLanes="" shape="500.00,0.00 496.80,0.00 500.00,0.00"/>
    <junction id="w1" type="dead_end" x="0.00" y="500.00" incLanes="w1o_0" intLanes="" shape="0.00,500.00 0.00,503.20 0.00,500.00"/>

    <junction id=":c1_12_0" type="internal" x="500.00" y="501.60" incLanes=":c1_2_0 s1i_0" intLanes=":c1_4_0 :c1_5_0 :c1_6_0 :c1_7_0 :c1_10_0 :c1_11_0"/>
    <junction id=":c1_13_0" type="internal" x="501.60" y="500.00" incLanes=":c1_5_0 w1i_0" intLanes=":c1_1_0 :c1_2_0 :c1_7_0 :c1_8_0 :c1_9_0 :c1_10_0"/>
    <junction id=":c1_14_0" type="internal" x="500.00" y="498.40" incLanes=":c1_8_0 n1i_0" intLanes=":c1_0_0 :c1_1_0 :c1_4_0 :c1_5_0 :c1_10_0 :c1_11_0"/>
    <junction id=":c1_15_0" type="internal" x="498.40" y="500.00" incLanes=":c1_11_0 e1i_0" intLanes=":c1_1_0 :c1_2_0 :c1_3_0 :c1_4_0 :c1_7_0 :c1_8_0"/>

    <connection from="e1i" to="n1o" fromLane="0" toLane="0" via=":c1_3_0" tl="c1" linkIndex="3" dir="r" state="o"/>
    <connection from="e1i" to="w1o" fromLane="0" toLane="0" via=":c1_4_0" tl="c1" linkIndex="4" dir="s" state="o"/>
    <connection from="e1i" to="s1o" fromLane="0" toLane="0" via=":c1_5_0" tl="c1" linkIndex="5" dir="l" state="o"/>
    <connection from="n1i" to="w1o" fromLane="0" toLane="0" via=":c1_0_0" tl="c1" linkIndex="0" dir="r" state="O"/>
    <connection from="n1i" to="s1o" fromLane="0" toLane="0" via=":c1_1_0" tl="c1" linkIndex="1" dir="s" state="O"/>
    <connection from="n1i" to="e1o" fromLane="0" toLane="0" via=":c1_2_0" tl="c1" linkIndex="2" dir="l" state="o"/>
    <connection from="s1i" to="e1o" fromLane="0" toLane="0" via=":c1_6_0" tl="c1" linkIndex="6" dir="r" state="O"/>
    <connection from="s1i" to="n1o" fromLane="0" toLane="0" via=":c1_7_0" tl="c1" linkIndex="7" dir="s" state="O"/>
    <connection from="s1i" to="w1o" fromLane="0" toLane="0" via=":c1_8_0" tl="c1" linkIndex="8" dir="l" state="o"/>
    <connection from="w1i" to="s1o" fromLane="0" toLane="0" via=":c1_9_0" tl="c1" linkIndex="9" dir="r" state="o"/>
    <connection from="w1i" to="e1o" fromLane="0" toLane="0" via=":c1_10_0" tl="c1" linkIndex="10" dir="s" state="o"/>
    <connection from="w1i" to="n1o" fromLane="0" toLane="0" via=":c1_11_0" tl="c1" linkIndex="11" dir="l" state="o"/>

    <connection from=":c1_0" to="w1o" fromLane="0" toLane="0" dir="r" state="M"/>
    <connection from=":c1_1" to="s1o" fromLane="0" toLane="0" dir="s" state="M"/>
    <connection from=":c1_2" to="e1o" fromLane="0" toLane="0" via=":c1_12_0" dir="l" state="m"/>
    <connection from=":c1_12" to="e1o" fromLane="0" toLane="0" dir="l" state="M"/>
    <connection from=":c1_3" to="n1o" fromLane="0" toLane="0" dir="r" state="M"/>
    <connection from=":c1_4" to="w1o" fromLane="0" toLane="0" dir="s" state="M"/>
    <connection from=":c1_5" to="s1o" fromLane="0" toLane="0" via=":c1_13_0" dir="l" state="m"/>
    <connection from=":c1_13" to="s1o" fromLane="0" toLane="0" dir="l" state="M"/>
    <connection from=":c1_6" to="e1o" fromLane="0" toLane="0" dir="r" state="M"/>
    <connection from=":c1_7" to="n1o" fromLane="0" toLane="0" dir="s" state="M"/>
    <connection from=":c1_8" to="w1o" fromLane="0" toLane="0" via=":c1_14_0" dir="l" state="m"/>
    <connection from=":c1_14" to="w1o" fromLane="0" toLane="0" dir="l" state="M"/>
    <connection from=":c1_9" to="s1o" fromLane="0" toLane="0" dir="r" state="M"/>
    <connection from=":c1_10" to="e1o" fromLane="0" toLane="0" dir="s" state="M"/>
    <connection from=":c1_11" to="n1o" fromLane="0" toLane="0" via=":c1_15_0" dir="l" state="m"/>
    <connection from=":c1_15" to="n1o" fromLane="0" toLane="0" dir="l" state="M"/>

</net>
