<?xml version="1.0" ?>
<additional>
   <tlLogic id="c1" programID="static_program_1" type="static">
      <phase duration="16" state="GGrrGGrr"/>
      <phase duration="5" state="yyrryyrr"/>
      <phase duration="64" state="rrGGrrGG"/>
      <phase duration="5" state="rryyrryy"/>
   </tlLogic>
   <tlLogic id="c1" programID="static_program_2" type="static">
      <phase duration="26" state="GGrrGGrr"/>
      <phase duration="5" state="yyrryyrr"/>
      <phase duration="54" state="rrGGrrGG"/>
      <phase duration="5" state="rryyrryy"/>
   </tlLogic>
   <tlLogic id="c1" programID="static_program_3" type="static">
      <phase duration="40" state="GGrrGGrr"/>
      <phase duration="5" state="yyrryyrr"/>
      <phase duration="40" state="rrGGrrGG"/>
      <phase duration="5" state="rryyrryy"/>
   </tlLogic>
   <tlLogic id="c1" programID="static_program_4" type="static">
      <phase duration="53" state="GGrrGGrr"/>
      <phase duration="5" state="yyrryyrr"/>
      <phase duration="27" state="rrGGrrGG"/>
      <phase duration="5" state="rryyrryy"/>
   </tlLogic>
   <tlLogic id="c1" programID="static_program_5" type="static">
      <phase duration="64" state="GGrrGGrr"/>
      <phase duration="5" state="yyrryyrr"/>
      <phase duration="16" state="rrGGrrGG"/>
      <phase duration="5" state="rryyrryy"/>
   </tlLogic>
</additional>
