<?xml version="1.0" ?>
<routes>
   <flow begin="0" end="1800" from="w1_c1" id="0" to="c1_e1" vehsPerHour="4"/>
   <flow begin="0" end="1800" from="e1_c1" id="1" to="c1_w1" vehsPerHour="1"/>
   <flow begin="0" end="1800" from="n1_c1" id="2" to="c1_s1" vehsPerHour="2"/>
   <flow begin="0" end="1800" from="s1_c1" id="3" to="c1_n1" vehsPerHour="5"/>
   <flow begin="1800" end="3600" from="w1_c1" id="4" to="c1_e1" vehsPerHour="3"/>
   <flow begin="1800" end="3600" from="e1_c1" id="5" to="c1_w1" vehsPerHour="5"/>
   <flow begin="1800" end="3600" from="n1_c1" id="6" to="c1_s1" vehsPerHour="4"/>
   <flow begin="1800" end="3600" from="s1_c1" id="7" to="c1_n1" vehsPerHour="3"/>
   <flow begin="3600" end="5400" from="w1_c1" id="8" to="c1_e1" vehsPerHour="4"/>
   <flow begin="3600" end="5400" from="e1_c1" id="9" to="c1_w1" vehsPerHour="4"/>
   <flow begin="3600" end="5400" from="n1_c1" id="10" to="c1_s1" vehsPerHour="3"/>
   <flow begin="3600" end="5400" from="s1_c1" id="11" to="c1_n1" vehsPerHour="4"/>
   <flow begin="5400" end="7200" from="w1_c1" id="12" to="c1_e1" vehsPerHour="3"/>
   <flow begin="5400" end="7200" from="e1_c1" id="13" to="c1_w1" vehsPerHour="2"/>
   <flow begin="5400" end="7200" from="n1_c1" id="14" to="c1_s1" vehsPerHour="4"/>
   <flow begin="5400" end="7200" from="s1_c1" id="15" to="c1_n1" vehsPerHour="4"/>
   <flow begin="7200" end="9000" from="w1_c1" id="16" to="c1_e1" vehsPerHour="3"/>
   <flow begin="7200" end="9000" from="e1_c1" id="17" to="c1_w1" vehsPerHour="4"/>
   <flow begin="7200" end="9000" from="n1_c1" id="18" to="c1_s1" vehsPerHour="5"/>
   <flow begin="7200" end="9000" from="s1_c1" id="19" to="c1_n1" vehsPerHour="4"/>
   <flow begin="9000" end="10800" from="w1_c1" id="20" to="c1_e1" vehsPerHour="2"/>
   <flow begin="9000" end="10800" from="e1_c1" id="21" to="c1_w1" vehsPerHour="3"/>
   <flow begin="9000" end="10800" from="n1_c1" id="22" to="c1_s1" vehsPerHour="3"/>
   <flow begin="9000" end="10800" from="s1_c1" id="23" to="c1_n1" vehsPerHour="3"/>
   <flow begin="10800" end="12600" from="w1_c1" id="24" to="c1_e1" vehsPerHour="1"/>
   <flow begin="10800" end="12600" from="e1_c1" id="25" to="c1_w1" vehsPerHour="3"/>
   <flow begin="10800" end="12600" from="n1_c1" id="26" to="c1_s1" vehsPerHour="2"/>
   <flow begin="10800" end="12600" from="s1_c1" id="27" to="c1_n1" vehsPerHour="5"/>
   <flow begin="12600" end="14400" from="w1_c1" id="28" to="c1_e1" vehsPerHour="3"/>
   <flow begin="12600" end="14400" from="e1_c1" id="29" to="c1_w1" vehsPerHour="2"/>
   <flow begin="12600" end="14400" from="n1_c1" id="30" to="c1_s1" vehsPerHour="3"/>
   <flow begin="12600" end="14400" from="s1_c1" id="31" to="c1_n1" vehsPerHour="4"/>
   <flow begin="14400" end="16200" from="w1_c1" id="32" to="c1_e1" vehsPerHour="1"/>
   <flow begin="14400" end="16200" from="e1_c1" id="33" to="c1_w1" vehsPerHour="1"/>
   <flow begin="14400" end="16200" from="n1_c1" id="34" to="c1_s1" vehsPerHour="1"/>
   <flow begin="14400" end="16200" from="s1_c1" id="35" to="c1_n1" vehsPerHour="4"/>
   <flow begin="16200" end="18000" from="w1_c1" id="36" to="c1_e1" vehsPerHour="5"/>
   <flow begin="16200" end="18000" from="e1_c1" id="37" to="c1_w1" vehsPerHour="3"/>
   <flow begin="16200" end="18000" from="n1_c1" id="38" to="c1_s1" vehsPerHour="4"/>
   <flow begin="16200" end="18000" from="s1_c1" id="39" to="c1_n1" vehsPerHour="1"/>
   <flow begin="18000" end="19800" from="w1_c1" id="40" to="c1_e1" vehsPerHour="4"/>
   <flow begin="18000" end="19800" from="e1_c1" id="41" to="c1_w1" vehsPerHour="5"/>
   <flow begin="18000" end="19800" from="n1_c1" id="42" to="c1_s1" vehsPerHour="4"/>
   <flow begin="18000" end="19800" from="s1_c1" id="43" to="c1_n1" vehsPerHour="1"/>
   <flow begin="19800" end="21600" from="w1_c1" id="44" to="c1_e1" vehsPerHour="2"/>
   <flow begin="19800" end="21600" from="e1_c1" id="45" to="c1_w1" vehsPerHour="4"/>
   <flow begin="19800" end="21600" from="n1_c1" id="46" to="c1_s1" vehsPerHour="5"/>
   <flow begin="19800" end="21600" from="s1_c1" id="47" to="c1_n1" vehsPerHour="2"/>
   <flow begin="21600" end="23400" from="w1_c1" id="48" to="c1_e1" vehsPerHour="5"/>
   <flow begin="21600" end="23400" from="e1_c1" id="49" to="c1_w1" vehsPerHour="2"/>
   <flow begin="21600" end="23400" from="n1_c1" id="50" to="c1_s1" vehsPerHour="26"/>
   <flow begin="21600" end="23400" from="s1_c1" id="51" to="c1_n1" vehsPerHour="24"/>
   <flow begin="23400" end="25200" from="w1_c1" id="52" to="c1_e1" vehsPerHour="4"/>
   <flow begin="23400" end="25200" from="e1_c1" id="53" to="c1_w1" vehsPerHour="2"/>
   <flow begin="23400" end="25200" from="n1_c1" id="54" to="c1_s1" vehsPerHour="20"/>
   <flow begin="23400" end="25200" from="s1_c1" id="55" to="c1_n1" vehsPerHour="19"/>
   <flow begin="25200" end="27000" from="w1_c1" id="56" to="c1_e1" vehsPerHour="14"/>
   <flow begin="25200" end="27000" from="e1_c1" id="57" to="c1_w1" vehsPerHour="17"/>
   <flow begin="25200" end="27000" from="n1_c1" id="58" to="c1_s1" vehsPerHour="131"/>
   <flow begin="25200" end="27000" from="s1_c1" id="59" to="c1_n1" vehsPerHour="167"/>
   <flow begin="27000" end="28800" from="w1_c1" id="60" to="c1_e1" vehsPerHour="17"/>
   <flow begin="27000" end="28800" from="e1_c1" id="61" to="c1_w1" vehsPerHour="14"/>
   <flow begin="27000" end="28800" from="n1_c1" id="62" to="c1_s1" vehsPerHour="141"/>
   <flow begin="27000" end="28800" from="s1_c1" id="63" to="c1_n1" vehsPerHour="132"/>
   <flow begin="28800" end="30600" from="w1_c1" id="64" to="c1_e1" vehsPerHour="130"/>
   <flow begin="28800" end="30600" from="e1_c1" id="65" to="c1_w1" vehsPerHour="152"/>
   <flow begin="28800" end="30600" from="n1_c1" id="66" to="c1_s1" vehsPerHour="375"/>
   <flow begin="28800" end="30600" from="s1_c1" id="67" to="c1_n1" vehsPerHour="523"/>
   <flow begin="30600" end="32400" from="w1_c1" id="68" to="c1_e1" vehsPerHour="193"/>
   <flow begin="30600" end="32400" from="e1_c1" id="69" to="c1_w1" vehsPerHour="156"/>
   <flow begin="30600" end="32400" from="n1_c1" id="70" to="c1_s1" vehsPerHour="439"/>
   <flow begin="30600" end="32400" from="s1_c1" id="71" to="c1_n1" vehsPerHour="621"/>
   <flow begin="32400" end="34200" from="w1_c1" id="72" to="c1_e1" vehsPerHour="182"/>
   <flow begin="32400" end="34200" from="e1_c1" id="73" to="c1_w1" vehsPerHour="156"/>
   <flow begin="32400" end="34200" from="n1_c1" id="74" to="c1_s1" vehsPerHour="572"/>
   <flow begin="32400" end="34200" from="s1_c1" id="75" to="c1_n1" vehsPerHour="372"/>
   <flow begin="34200" end="36000" from="w1_c1" id="76" to="c1_e1" vehsPerHour="20"/>
   <flow begin="34200" end="36000" from="e1_c1" id="77" to="c1_w1" vehsPerHour="21"/>
   <flow begin="34200" end="36000" from="n1_c1" id="78" to="c1_s1" vehsPerHour="418"/>
   <flow begin="34200" end="36000" from="s1_c1" id="79" to="c1_n1" vehsPerHour="358"/>
   <flow begin="36000" end="37800" from="w1_c1" id="80" to="c1_e1" vehsPerHour="25"/>
   <flow begin="36000" end="37800" from="e1_c1" id="81" to="c1_w1" vehsPerHour="14"/>
   <flow begin="36000" end="37800" from="n1_c1" id="82" to="c1_s1" vehsPerHour="127"/>
   <flow begin="36000" end="37800" from="s1_c1" id="83" to="c1_n1" vehsPerHour="125"/>
   <flow begin="37800" end="39600" from="w1_c1" id="84" to="c1_e1" vehsPerHour="15"/>
   <flow begin="37800" end="39600" from="e1_c1" id="85" to="c1_w1" vehsPerHour="22"/>
   <flow begin="37800" end="39600" from="n1_c1" id="86" to="c1_s1" vehsPerHour="108"/>
   <flow begin="37800" end="39600" from="s1_c1" id="87" to="c1_n1" vehsPerHour="184"/>
   <flow begin="39600" end="41400" from="w1_c1" id="88" to="c1_e1" vehsPerHour="21"/>
   <flow begin="39600" end="41400" from="e1_c1" id="89" to="c1_w1" vehsPerHour="23"/>
   <flow begin="39600" end="41400" from="n1_c1" id="90" to="c1_s1" vehsPerHour="139"/>
   <flow begin="39600" end="41400" from="s1_c1" id="91" to="c1_n1" vehsPerHour="120"/>
   <flow begin="41400" end="43200" from="w1_c1" id="92" to="c1_e1" vehsPerHour="26"/>
   <flow begin="41400" end="43200" from="e1_c1" id="93" to="c1_w1" vehsPerHour="18"/>
   <flow begin="41400" end="43200" from="n1_c1" id="94" to="c1_s1" vehsPerHour="113"/>
   <flow begin="41400" end="43200" from="s1_c1" id="95" to="c1_n1" vehsPerHour="138"/>
   <flow begin="43200" end="45000" from="w1_c1" id="96" to="c1_e1" vehsPerHour="23"/>
   <flow begin="43200" end="45000" from="e1_c1" id="97" to="c1_w1" vehsPerHour="24"/>
   <flow begin="43200" end="45000" from="n1_c1" id="98" to="c1_s1" vehsPerHour="148"/>
   <flow begin="43200" end="45000" from="s1_c1" id="99" to="c1_n1" vehsPerHour="120"/>
   <flow begin="45000" end="46800" from="w1_c1" id="100" to="c1_e1" vehsPerHour="162"/>
   <flow begin="45000" end="46800" from="e1_c1" id="101" to="c1_w1" vehsPerHour="108"/>
   <flow begin="45000" end="46800" from="n1_c1" id="102" to="c1_s1" vehsPerHour="140"/>
   <flow begin="45000" end="46800" from="s1_c1" id="103" to="c1_n1" vehsPerHour="194"/>
   <flow begin="46800" end="48600" from="w1_c1" id="104" to="c1_e1" vehsPerHour="184"/>
   <flow begin="46800" end="48600" from="e1_c1" id="105" to="c1_w1" vehsPerHour="169"/>
   <flow begin="46800" end="48600" from="n1_c1" id="106" to="c1_s1" vehsPerHour="177"/>
   <flow begin="46800" end="48600" from="s1_c1" id="107" to="c1_n1" vehsPerHour="120"/>
   <flow begin="48600" end="50400" from="w1_c1" id="108" to="c1_e1" vehsPerHour="543"/>
   <flow begin="48600" end="50400" from="e1_c1" id="109" to="c1_w1" vehsPerHour="411"/>
   <flow begin="48600" end="50400" from="n1_c1" id="110" to="c1_s1" vehsPerHour="429"/>
   <flow begin="48600" end="50400" from="s1_c1" id="111" to="c1_n1" vehsPerHour="586"/>
   <flow begin="50400" end="52200" from="w1_c1" id="112" to="c1_e1" vehsPerHour="422"/>
   <flow begin="50400" end="52200" from="e1_c1" id="113" to="c1_w1" vehsPerHour="618"/>
   <flow begin="50400" end="52200" from="n1_c1" id="114" to="c1_s1" vehsPerHour="460"/>
   <flow begin="50400" end="52200" from="s1_c1" id="115" to="c1_n1" vehsPerHour="542"/>
   <flow begin="52200" end="54000" from="w1_c1" id="116" to="c1_e1" vehsPerHour="144"/>
   <flow begin="52200" end="54000" from="e1_c1" id="117" to="c1_w1" vehsPerHour="154"/>
   <flow begin="52200" end="54000" from="n1_c1" id="118" to="c1_s1" vehsPerHour="363"/>
   <flow begin="52200" end="54000" from="s1_c1" id="119" to="c1_n1" vehsPerHour="580"/>
   <flow begin="54000" end="55800" from="w1_c1" id="120" to="c1_e1" vehsPerHour="138"/>
   <flow begin="54000" end="55800" from="e1_c1" id="121" to="c1_w1" vehsPerHour="139"/>
   <flow begin="54000" end="55800" from="n1_c1" id="122" to="c1_s1" vehsPerHour="489"/>
   <flow begin="54000" end="55800" from="s1_c1" id="123" to="c1_n1" vehsPerHour="579"/>
   <flow begin="55800" end="57600" from="w1_c1" id="124" to="c1_e1" vehsPerHour="23"/>
   <flow begin="55800" end="57600" from="e1_c1" id="125" to="c1_w1" vehsPerHour="22"/>
   <flow begin="55800" end="57600" from="n1_c1" id="126" to="c1_s1" vehsPerHour="176"/>
   <flow begin="55800" end="57600" from="s1_c1" id="127" to="c1_n1" vehsPerHour="114"/>
   <flow begin="57600" end="59400" from="w1_c1" id="128" to="c1_e1" vehsPerHour="20"/>
   <flow begin="57600" end="59400" from="e1_c1" id="129" to="c1_w1" vehsPerHour="18"/>
   <flow begin="57600" end="59400" from="n1_c1" id="130" to="c1_s1" vehsPerHour="20"/>
   <flow begin="57600" end="59400" from="s1_c1" id="131" to="c1_n1" vehsPerHour="16"/>
   <flow begin="59400" end="61200" from="w1_c1" id="132" to="c1_e1" vehsPerHour="20"/>
   <flow begin="59400" end="61200" from="e1_c1" id="133" to="c1_w1" vehsPerHour="23"/>
   <flow begin="59400" end="61200" from="n1_c1" id="134" to="c1_s1" vehsPerHour="23"/>
   <flow begin="59400" end="61200" from="s1_c1" id="135" to="c1_n1" vehsPerHour="23"/>
   <flow begin="61200" end="63000" from="w1_c1" id="136" to="c1_e1" vehsPerHour="14"/>
   <flow begin="61200" end="63000" from="e1_c1" id="137" to="c1_w1" vehsPerHour="25"/>
   <flow begin="61200" end="63000" from="n1_c1" id="138" to="c1_s1" vehsPerHour="141"/>
   <flow begin="61200" end="63000" from="s1_c1" id="139" to="c1_n1" vehsPerHour="170"/>
   <flow begin="63000" end="64800" from="w1_c1" id="140" to="c1_e1" vehsPerHour="22"/>
   <flow begin="63000" end="64800" from="e1_c1" id="141" to="c1_w1" vehsPerHour="23"/>
   <flow begin="63000" end="64800" from="n1_c1" id="142" to="c1_s1" vehsPerHour="181"/>
   <flow begin="63000" end="64800" from="s1_c1" id="143" to="c1_n1" vehsPerHour="112"/>
   <flow begin="64800" end="66600" from="w1_c1" id="144" to="c1_e1" vehsPerHour="21"/>
   <flow begin="64800" end="66600" from="e1_c1" id="145" to="c1_w1" vehsPerHour="19"/>
   <flow begin="64800" end="66600" from="n1_c1" id="146" to="c1_s1" vehsPerHour="171"/>
   <flow begin="64800" end="66600" from="s1_c1" id="147" to="c1_n1" vehsPerHour="129"/>
   <flow begin="66600" end="68400" from="w1_c1" id="148" to="c1_e1" vehsPerHour="17"/>
   <flow begin="66600" end="68400" from="e1_c1" id="149" to="c1_w1" vehsPerHour="24"/>
   <flow begin="66600" end="68400" from="n1_c1" id="150" to="c1_s1" vehsPerHour="14"/>
   <flow begin="66600" end="68400" from="s1_c1" id="151" to="c1_n1" vehsPerHour="16"/>
   <flow begin="68400" end="70200" from="w1_c1" id="152" to="c1_e1" vehsPerHour="24"/>
   <flow begin="68400" end="70200" from="e1_c1" id="153" to="c1_w1" vehsPerHour="21"/>
   <flow begin="68400" end="70200" from="n1_c1" id="154" to="c1_s1" vehsPerHour="22"/>
   <flow begin="68400" end="70200" from="s1_c1" id="155" to="c1_n1" vehsPerHour="16"/>
   <flow begin="70200" end="72000" from="w1_c1" id="156" to="c1_e1" vehsPerHour="15"/>
   <flow begin="70200" end="72000" from="e1_c1" id="157" to="c1_w1" vehsPerHour="15"/>
   <flow begin="70200" end="72000" from="n1_c1" id="158" to="c1_s1" vehsPerHour="157"/>
   <flow begin="70200" end="72000" from="s1_c1" id="159" to="c1_n1" vehsPerHour="129"/>
   <flow begin="72000" end="73800" from="w1_c1" id="160" to="c1_e1" vehsPerHour="16"/>
   <flow begin="72000" end="73800" from="e1_c1" id="161" to="c1_w1" vehsPerHour="17"/>
   <flow begin="72000" end="73800" from="n1_c1" id="162" to="c1_s1" vehsPerHour="169"/>
   <flow begin="72000" end="73800" from="s1_c1" id="163" to="c1_n1" vehsPerHour="149"/>
   <flow begin="73800" end="75600" from="w1_c1" id="164" to="c1_e1" vehsPerHour="153"/>
   <flow begin="73800" end="75600" from="e1_c1" id="165" to="c1_w1" vehsPerHour="157"/>
   <flow begin="73800" end="75600" from="n1_c1" id="166" to="c1_s1" vehsPerHour="590"/>
   <flow begin="73800" end="75600" from="s1_c1" id="167" to="c1_n1" vehsPerHour="570"/>
   <flow begin="75600" end="77400" from="w1_c1" id="168" to="c1_e1" vehsPerHour="186"/>
   <flow begin="75600" end="77400" from="e1_c1" id="169" to="c1_w1" vehsPerHour="190"/>
   <flow begin="75600" end="77400" from="n1_c1" id="170" to="c1_s1" vehsPerHour="146"/>
   <flow begin="75600" end="77400" from="s1_c1" id="171" to="c1_n1" vehsPerHour="112"/>
   <flow begin="77400" end="79200" from="w1_c1" id="172" to="c1_e1" vehsPerHour="18"/>
   <flow begin="77400" end="79200" from="e1_c1" id="173" to="c1_w1" vehsPerHour="20"/>
   <flow begin="77400" end="79200" from="n1_c1" id="174" to="c1_s1" vehsPerHour="188"/>
   <flow begin="77400" end="79200" from="s1_c1" id="175" to="c1_n1" vehsPerHour="106"/>
   <flow begin="79200" end="81000" from="w1_c1" id="176" to="c1_e1" vehsPerHour="21"/>
   <flow begin="79200" end="81000" from="e1_c1" id="177" to="c1_w1" vehsPerHour="14"/>
   <flow begin="79200" end="81000" from="n1_c1" id="178" to="c1_s1" vehsPerHour="136"/>
   <flow begin="79200" end="81000" from="s1_c1" id="179" to="c1_n1" vehsPerHour="163"/>
   <flow begin="81000" end="82800" from="w1_c1" id="180" to="c1_e1" vehsPerHour="5"/>
   <flow begin="81000" end="82800" from="e1_c1" id="181" to="c1_w1" vehsPerHour="1"/>
   <flow begin="81000" end="82800" from="n1_c1" id="182" to="c1_s1" vehsPerHour="25"/>
   <flow begin="81000" end="82800" from="s1_c1" id="183" to="c1_n1" vehsPerHour="26"/>
   <flow begin="82800" end="84600" from="w1_c1" id="184" to="c1_e1" vehsPerHour="3"/>
   <flow begin="82800" end="84600" from="e1_c1" id="185" to="c1_w1" vehsPerHour="3"/>
   <flow begin="82800" end="84600" from="n1_c1" id="186" to="c1_s1" vehsPerHour="23"/>
   <flow begin="82800" end="84600" from="s1_c1" id="187" to="c1_n1" vehsPerHour="18"/>
   <flow begin="84600" end="86400" from="w1_c1" id="188" to="c1_e1" vehsPerHour="3"/>
   <flow begin="84600" end="86400" from="e1_c1" id="189" to="c1_w1" vehsPerHour="3"/>
   <flow begin="84600" end="86400" from="n1_c1" id="190" to="c1_s1" vehsPerHour="2"/>
   <flow begin="84600" end="86400" from="s1_c1" id="191" to="c1_n1" vehsPerHour="5"/>
</routes>
