<?xml version="1.0" encoding="UTF-8"?>

<!-- generated on lun 29 nov 2021 10:00:29 CET by Eclipse SUMO netedit Version v1_1_0+0000-2147d155b1
<configuration xmlns:xsi="http://www.w3.org/2001/XMLSchema-instance" xsi:noNamespaceSchemaLocation="http://sumo.dlr.de/xsd/netconvertConfiguration.xsd">

    <input>
        <sumo-net-file value="/home/eclipse-sumo/Desktop/Master&apos;s%20Thesis/traffic_light_study/net-files/topology/topology.net.xml"/>
    </input>

    <output>
        <output-file value="/home/eclipse-sumo/Desktop/Master&apos;s%20Thesis/traffic_light_study/net-files/topology/topology.net.xml"/>
    </output>

    <processing>
        <geometry.max-grade.fix value="false"/>
        <offset.disable-normalization value="true"/>
        <lefthand value="false"/>
    </processing>

    <junctions>
        <no-turnarounds value="true"/>
        <junctions.corner-detail value="5"/>
        <junctions.limit-turn-speed value="5.5"/>
        <rectangular-lane-cut value="false"/>
    </junctions>

    <pedestrian>
        <walkingareas value="false"/>
    </pedestrian>

</configuration>
-->

<net version="1.1" junctionCornerDetail="5" limitTurnSpeed="5.50" xmlns:xsi="http://www.w3.org/2001/XMLSchema-instance" xsi:noNamespaceSchemaLocation="http://sumo.dlr.de/xsd/net_file.xsd">

    <location netOffset="0.00,-500.00" convBoundary="0.00,0.00,1000.00,1000.00" origBoundary="0.00,500.00,1000.00,1500.00" projParameter="!"/>

    <edge id=":c1_0" function="internal">
        <lane id=":c1_0_0" index="0" speed="13.89" length="20.80" shape="495.20,510.40 495.20,489.60"/>
        <lane id=":c1_0_1" index="1" speed="13.89" length="20.80" shape="498.40,510.40 498.40,489.60"/>
    </edge>
    <edge id=":c1_2" function="internal">
        <lane id=":c1_2_0" index="0" speed="13.89" length="20.80" shape="510.40,504.80 489.60,504.80"/>
        <lane id=":c1_2_1" index="1" speed="13.89" length="20.80" shape="510.40,501.60 489.60,501.60"/>
    </edge>
    <edge id=":c1_4" function="internal">
        <lane id=":c1_4_0" index="0" speed="13.89" length="20.80" shape="504.80,489.60 504.80,510.40"/>
        <lane id=":c1_4_1" index="1" speed="13.89" length="20.80" shape="501.60,489.60 501.60,510.40"/>
    </edge>
    <edge id=":c1_6" function="internal">
        <lane id=":c1_6_0" index="0" speed="13.89" length="20.80" shape="489.60,495.20 510.40,495.20"/>
        <lane id=":c1_6_1" index="1" speed="13.89" length="20.80" shape="489.60,498.40 510.40,498.40"/>
    </edge>

    <edge id="e1i" from="e1" to="c1" priority="-1">
        <lane id="e1i_0" index="0" speed="13.89" length="489.60" shape="1000.00,504.80 510.40,504.80"/>
        <lane id="e1i_1" index="1" speed="13.89" length="489.60" shape="1000.00,501.60 510.40,501.60"/>
    </edge>
    <edge id="e1o" from="c1" to="e1" priority="-1">
        <lane id="e1o_0" index="0" speed="13.89" length="489.60" shape="510.40,495.20 1000.00,495.20"/>
        <lane id="e1o_1" index="1" speed="13.89" length="489.60" shape="510.40,498.40 1000.00,498.40"/>
    </edge>
    <edge id="n1i" from="n1" to="c1" priority="-1">
        <lane id="n1i_0" index="0" speed="13.89" length="489.60" shape="495.20,1000.00 495.20,510.40"/>
        <lane id="n1i_1" index="1" speed="13.89" length="489.60" shape="498.40,1000.00 498.40,510.40"/>
    </edge>
    <edge id="n1o" from="c1" to="n1" priority="-1">
        <lane id="n1o_0" index="0" speed="13.89" length="489.60" shape="504.80,510.40 504.80,1000.00"/>
        <lane id="n1o_1" index="1" speed="13.89" length="489.60" shape="501.60,510.40 501.60,1000.00"/>
    </edge>
    <edge id="s1i" from="s1" to="c1" priority="-1">
        <lane id="s1i_0" index="0" speed="13.89" length="489.60" shape="504.80,0.00 504.80,489.60"/>
        <lane id="s1i_1" index="1" speed="13.89" length="489.60" shape="501.60,0.00 501.60,489.60"/>
    </edge>
    <edge id="s1o" from="c1" to="s1" priority="-1">
        <lane id="s1o_0" index="0" speed="13.89" length="489.60" shape="495.20,489.60 495.20,0.00"/>
        <lane id="s1o_1" index="1" speed="13.89" length="489.60" shape="498.40,489.60 498.40,0.00"/>
    </edge>
    <edge id="w1i" from="w1" to="c1" priority="-1">
        <lane id="w1i_0" index="0" speed="13.89" length="489.60" shape="0.00,495.20 489.60,495.20"/>
        <lane id="w1i_1" index="1" speed="13.89" length="489.60" shape="0.00,498.40 489.60,498.40"/>
    </edge>
    <edge id="w1o" from="c1" to="w1" priority="-1">
        <lane id="w1o_0" index="0" speed="13.89" length="489.60" shape="489.60,504.80 0.00,504.80"/>
        <lane id="w1o_1" index="1" speed="13.89" length="489.60" shape="489.60,501.60 0.00,501.60"/>
    </edge>

    <tlLogic id="c1" type="static" programID="0" offset="0">
        <phase duration="42" state="GGrrGGrr"/>
        <phase duration="3"  state="yyrryyrr"/>
        <phase duration="42" state="rrGGrrGG"/>
        <phase duration="3"  state="rryyrryy"/>
    </tlLogic>

    <junction id="c1" type="traffic_light" x="500.00" y="500.00" incLanes="n1i_0 n1i_1 e1i_0 e1i_1 s1i_0 s1i_1 w1i_0 w1i_1" intLanes=":c1_0_0 :c1_0_1 :c1_2_0 :c1_2_1 :c1_4_0 :c1_4_1 :c1_6_0 :c1_6_1" shape="493.60,510.40 506.40,510.40 506.84,508.18 507.40,507.40 508.18,506.84 509.18,506.51 510.40,506.40 510.40,493.60 508.18,493.16 507.40,492.60 506.84,491.82 506.51,490.82 506.40,489.60 493.60,489.60 493.16,491.82 492.60,492.60 491.82,493.16 490.82,493.49 489.60,493.60 489.60,506.40 491.82,506.84 492.60,507.40 493.16,508.18 493.49,509.18">
        <request index="0" response="00000000" foes="11001100" cont="0"/>
        <request index="1" response="00000000" foes="11001100" cont="0"/>
        <request index="2" response="00110011" foes="00110011" cont="0"/>
        <request index="3" response="00110011" foes="00110011" cont="0"/>
        <request index="4" response="00000000" foes="11001100" cont="0"/>
        <request index="5" response="00000000" foes="11001100" cont="0"/>
        <request index="6" response="00110011" foes="00110011" cont="0"/>
        <request index="7" response="00110011" foes="00110011" cont="0"/>
    </junction>
    <junction id="e1" type="dead_end" x="1000.00" y="500.00" incLanes="e1o_0 e1o_1" intLanes="" shape="1000.00,500.00 1000.00,493.60 1000.00,500.00"/>
    <junction id="n1" type="dead_end" x="500.00" y="1000.00" incLanes="n1o_0 n1o_1" intLanes="" shape="500.00,1000.00 506.40,1000.00 500.00,1000.00"/>
    <junction id="s1" type="dead_end" x="500.00" y="0.00" incLanes="s1o_0 s1o_1" intLanes="" shape="500.00,0.00 493.60,0.00 500.00,0.00"/>
    <junction id="w1" type="dead_end" x="0.00" y="500.00" incLanes="w1o_0 w1o_1" intLanes="" shape="0.00,500.00 0.00,506.40 0.00,500.00"/>

    <connection from="e1i" to="w1o" fromLane="0" toLane="0" via=":c1_2_0" tl="c1" linkIndex="2" dir="s" state="o"/>
    <connection from="e1i" to="w1o" fromLane="1" toLane="1" via=":c1_2_1" tl="c1" linkIndex="3" dir="s" state="o"/>
    <connection from="n1i" to="s1o" fromLane="0" toLane="0" via=":c1_0_0" tl="c1" linkIndex="0" dir="s" state="O"/>
    <connection from="n1i" to="s1o" fromLane="1" toLane="1" via=":c1_0_1" tl="c1" linkIndex="1" dir="s" state="O"/>
    <connection from="s1i" to="n1o" fromLane="0" toLane="0" via=":c1_4_0" tl="c1" linkIndex="4" dir="s" state="O"/>
    <connection from="s1i" to="n1o" fromLane="1" toLane="1" via=":c1_4_1" tl="c1" linkIndex="5" dir="s" state="O"/>
    <connection from="w1i" to="e1o" fromLane="0" toLane="0" via=":c1_6_0" tl="c1" linkIndex="6" dir="s" state="o"/>
    <connection from="w1i" to="e1o" fromLane="1" toLane="1" via=":c1_6_1" tl="c1" linkIndex="7" dir="s" state="o"/>

    <connection from=":c1_0" to="s1o" fromLane="0" toLane="0" dir="s" state="M"/>
    <connection from=":c1_0" to="s1o" fromLane="1" toLane="1" dir="s" state="M"/>
    <connection from=":c1_2" to="w1o" fromLane="0" toLane="0" dir="s" state="M"/>
    <connection from=":c1_2" to="w1o" fromLane="1" toLane="1" dir="s" state="M"/>
    <connection from=":c1_4" to="n1o" fromLane="0" toLane="0" dir="s" state="M"/>
    <connection from=":c1_4" to="n1o" fromLane="1" toLane="1" dir="s" state="M"/>
    <connection from=":c1_6" to="e1o" fromLane="0" toLane="0" dir="s" state="M"/>
    <connection from=":c1_6" to="e1o" fromLane="1" toLane="1" dir="s" state="M"/>

</net>
