<?xml version="1.0" ?>
<routes>
   <flow id="0" begin="0" end="1800" to="c2_e1" vehsPerHour="4" from="w1_c1"/>
   <flow id="1" begin="0" end="1800" to="c4_e2" vehsPerHour="2" from="w2_c3"/>
   <flow id="2" begin="0" end="1800" to="c1_w1" vehsPerHour="4" from="e1_c2"/>
   <flow id="3" begin="0" end="1800" to="c3_w2" vehsPerHour="5" from="e2_c4"/>
   <flow id="4" begin="0" end="1800" to="c3_s1" vehsPerHour="18" from="n1_c1"/>
   <flow id="5" begin="0" end="1800" to="c4_s2" vehsPerHour="20" from="n2_c2"/>
   <flow id="6" begin="0" end="1800" to="c1_n1" vehsPerHour="14" from="s1_c3"/>
   <flow id="7" begin="0" end="1800" to="c2_n2" vehsPerHour="19" from="s2_c4"/>
   <flow id="8" begin="1800" end="3600" to="c2_e1" vehsPerHour="3" from="w1_c1"/>
   <flow id="9" begin="1800" end="3600" to="c4_e2" vehsPerHour="3" from="w2_c3"/>
   <flow id="10" begin="1800" end="3600" to="c1_w1" vehsPerHour="3" from="e1_c2"/>
   <flow id="11" begin="1800" end="3600" to="c3_w2" vehsPerHour="4" from="e2_c4"/>
   <flow id="12" begin="1800" end="3600" to="c3_s1" vehsPerHour="16" from="n1_c1"/>
   <flow id="13" begin="1800" end="3600" to="c4_s2" vehsPerHour="22" from="n2_c2"/>
   <flow id="14" begin="1800" end="3600" to="c1_n1" vehsPerHour="14" from="s1_c3"/>
   <flow id="15" begin="1800" end="3600" to="c2_n2" vehsPerHour="22" from="s2_c4"/>
   <flow id="16" begin="3600" end="5400" to="c2_e1" vehsPerHour="1" from="w1_c1"/>
   <flow id="17" begin="3600" end="5400" to="c4_e2" vehsPerHour="2" from="w2_c3"/>
   <flow id="18" begin="3600" end="5400" to="c1_w1" vehsPerHour="2" from="e1_c2"/>
   <flow id="19" begin="3600" end="5400" to="c3_w2" vehsPerHour="2" from="e2_c4"/>
   <flow id="20" begin="3600" end="5400" to="c3_s1" vehsPerHour="19" from="n1_c1"/>
   <flow id="21" begin="3600" end="5400" to="c4_s2" vehsPerHour="14" from="n2_c2"/>
   <flow id="22" begin="3600" end="5400" to="c1_n1" vehsPerHour="20" from="s1_c3"/>
   <flow id="23" begin="3600" end="5400" to="c2_n2" vehsPerHour="16" from="s2_c4"/>
   <flow id="24" begin="5400" end="7200" to="c2_e1" vehsPerHour="4" from="w1_c1"/>
   <flow id="25" begin="5400" end="7200" to="c4_e2" vehsPerHour="5" from="w2_c3"/>
   <flow id="26" begin="5400" end="7200" to="c1_w1" vehsPerHour="5" from="e1_c2"/>
   <flow id="27" begin="5400" end="7200" to="c3_w2" vehsPerHour="3" from="e2_c4"/>
   <flow id="28" begin="5400" end="7200" to="c3_s1" vehsPerHour="24" from="n1_c1"/>
   <flow id="29" begin="5400" end="7200" to="c4_s2" vehsPerHour="19" from="n2_c2"/>
   <flow id="30" begin="5400" end="7200" to="c1_n1" vehsPerHour="23" from="s1_c3"/>
   <flow id="31" begin="5400" end="7200" to="c2_n2" vehsPerHour="22" from="s2_c4"/>
   <flow id="32" begin="7200" end="9000" to="c2_e1" vehsPerHour="3" from="w1_c1"/>
   <flow id="33" begin="7200" end="9000" to="c4_e2" vehsPerHour="5" from="w2_c3"/>
   <flow id="34" begin="7200" end="9000" to="c1_w1" vehsPerHour="2" from="e1_c2"/>
   <flow id="35" begin="7200" end="9000" to="c3_w2" vehsPerHour="4" from="e2_c4"/>
   <flow id="36" begin="7200" end="9000" to="c3_s1" vehsPerHour="22" from="n1_c1"/>
   <flow id="37" begin="7200" end="9000" to="c4_s2" vehsPerHour="22" from="n2_c2"/>
   <flow id="38" begin="7200" end="9000" to="c1_n1" vehsPerHour="15" from="s1_c3"/>
   <flow id="39" begin="7200" end="9000" to="c2_n2" vehsPerHour="16" from="s2_c4"/>
   <flow id="40" begin="9000" end="10800" to="c2_e1" vehsPerHour="4" from="w1_c1"/>
   <flow id="41" begin="9000" end="10800" to="c4_e2" vehsPerHour="2" from="w2_c3"/>
   <flow id="42" begin="9000" end="10800" to="c1_w1" vehsPerHour="5" from="e1_c2"/>
   <flow id="43" begin="9000" end="10800" to="c3_w2" vehsPerHour="5" from="e2_c4"/>
   <flow id="44" begin="9000" end="10800" to="c3_s1" vehsPerHour="5" from="n1_c1"/>
   <flow id="45" begin="9000" end="10800" to="c4_s2" vehsPerHour="1" from="n2_c2"/>
   <flow id="46" begin="9000" end="10800" to="c1_n1" vehsPerHour="1" from="s1_c3"/>
   <flow id="47" begin="9000" end="10800" to="c2_n2" vehsPerHour="2" from="s2_c4"/>
   <flow id="48" begin="10800" end="12600" to="c2_e1" vehsPerHour="17" from="w1_c1"/>
   <flow id="49" begin="10800" end="12600" to="c4_e2" vehsPerHour="16" from="w2_c3"/>
   <flow id="50" begin="10800" end="12600" to="c1_w1" vehsPerHour="16" from="e1_c2"/>
   <flow id="51" begin="10800" end="12600" to="c3_w2" vehsPerHour="14" from="e2_c4"/>
   <flow id="52" begin="10800" end="12600" to="c3_s1" vehsPerHour="5" from="n1_c1"/>
   <flow id="53" begin="10800" end="12600" to="c4_s2" vehsPerHour="4" from="n2_c2"/>
   <flow id="54" begin="10800" end="12600" to="c1_n1" vehsPerHour="5" from="s1_c3"/>
   <flow id="55" begin="10800" end="12600" to="c2_n2" vehsPerHour="4" from="s2_c4"/>
   <flow id="56" begin="12600" end="14400" to="c2_e1" vehsPerHour="24" from="w1_c1"/>
   <flow id="57" begin="12600" end="14400" to="c4_e2" vehsPerHour="23" from="w2_c3"/>
   <flow id="58" begin="12600" end="14400" to="c1_w1" vehsPerHour="20" from="e1_c2"/>
   <flow id="59" begin="12600" end="14400" to="c3_w2" vehsPerHour="22" from="e2_c4"/>
   <flow id="60" begin="12600" end="14400" to="c3_s1" vehsPerHour="5" from="n1_c1"/>
   <flow id="61" begin="12600" end="14400" to="c4_s2" vehsPerHour="4" from="n2_c2"/>
   <flow id="62" begin="12600" end="14400" to="c1_n1" vehsPerHour="3" from="s1_c3"/>
   <flow id="63" begin="12600" end="14400" to="c2_n2" vehsPerHour="2" from="s2_c4"/>
   <flow id="64" begin="14400" end="16200" to="c2_e1" vehsPerHour="2" from="w1_c1"/>
   <flow id="65" begin="14400" end="16200" to="c4_e2" vehsPerHour="1" from="w2_c3"/>
   <flow id="66" begin="14400" end="16200" to="c1_w1" vehsPerHour="1" from="e1_c2"/>
   <flow id="67" begin="14400" end="16200" to="c3_w2" vehsPerHour="4" from="e2_c4"/>
   <flow id="68" begin="14400" end="16200" to="c3_s1" vehsPerHour="1" from="n1_c1"/>
   <flow id="69" begin="14400" end="16200" to="c4_s2" vehsPerHour="2" from="n2_c2"/>
   <flow id="70" begin="14400" end="16200" to="c1_n1" vehsPerHour="4" from="s1_c3"/>
   <flow id="71" begin="14400" end="16200" to="c2_n2" vehsPerHour="2" from="s2_c4"/>
   <flow id="72" begin="16200" end="18000" to="c2_e1" vehsPerHour="4" from="w1_c1"/>
   <flow id="73" begin="16200" end="18000" to="c4_e2" vehsPerHour="2" from="w2_c3"/>
   <flow id="74" begin="16200" end="18000" to="c1_w1" vehsPerHour="3" from="e1_c2"/>
   <flow id="75" begin="16200" end="18000" to="c3_w2" vehsPerHour="2" from="e2_c4"/>
   <flow id="76" begin="16200" end="18000" to="c3_s1" vehsPerHour="18" from="n1_c1"/>
   <flow id="77" begin="16200" end="18000" to="c4_s2" vehsPerHour="16" from="n2_c2"/>
   <flow id="78" begin="16200" end="18000" to="c1_n1" vehsPerHour="25" from="s1_c3"/>
   <flow id="79" begin="16200" end="18000" to="c2_n2" vehsPerHour="23" from="s2_c4"/>
   <flow id="80" begin="18000" end="19800" to="c2_e1" vehsPerHour="2" from="w1_c1"/>
   <flow id="81" begin="18000" end="19800" to="c4_e2" vehsPerHour="1" from="w2_c3"/>
   <flow id="82" begin="18000" end="19800" to="c1_w1" vehsPerHour="5" from="e1_c2"/>
   <flow id="83" begin="18000" end="19800" to="c3_w2" vehsPerHour="5" from="e2_c4"/>
   <flow id="84" begin="18000" end="19800" to="c3_s1" vehsPerHour="14" from="n1_c1"/>
   <flow id="85" begin="18000" end="19800" to="c4_s2" vehsPerHour="21" from="n2_c2"/>
   <flow id="86" begin="18000" end="19800" to="c1_n1" vehsPerHour="14" from="s1_c3"/>
   <flow id="87" begin="18000" end="19800" to="c2_n2" vehsPerHour="25" from="s2_c4"/>
   <flow id="88" begin="19800" end="21600" to="c2_e1" vehsPerHour="3" from="w1_c1"/>
   <flow id="89" begin="19800" end="21600" to="c4_e2" vehsPerHour="1" from="w2_c3"/>
   <flow id="90" begin="19800" end="21600" to="c1_w1" vehsPerHour="4" from="e1_c2"/>
   <flow id="91" begin="19800" end="21600" to="c3_w2" vehsPerHour="3" from="e2_c4"/>
   <flow id="92" begin="19800" end="21600" to="c3_s1" vehsPerHour="5" from="n1_c1"/>
   <flow id="93" begin="19800" end="21600" to="c4_s2" vehsPerHour="4" from="n2_c2"/>
   <flow id="94" begin="19800" end="21600" to="c1_n1" vehsPerHour="3" from="s1_c3"/>
   <flow id="95" begin="19800" end="21600" to="c2_n2" vehsPerHour="4" from="s2_c4"/>
   <flow id="96" begin="21600" end="23400" to="c2_e1" vehsPerHour="5" from="w1_c1"/>
   <flow id="97" begin="21600" end="23400" to="c4_e2" vehsPerHour="1" from="w2_c3"/>
   <flow id="98" begin="21600" end="23400" to="c1_w1" vehsPerHour="4" from="e1_c2"/>
   <flow id="99" begin="21600" end="23400" to="c3_w2" vehsPerHour="4" from="e2_c4"/>
   <flow id="100" begin="21600" end="23400" to="c3_s1" vehsPerHour="2" from="n1_c1"/>
   <flow id="101" begin="21600" end="23400" to="c4_s2" vehsPerHour="4" from="n2_c2"/>
   <flow id="102" begin="21600" end="23400" to="c1_n1" vehsPerHour="5" from="s1_c3"/>
   <flow id="103" begin="21600" end="23400" to="c2_n2" vehsPerHour="1" from="s2_c4"/>
   <flow id="104" begin="23400" end="25200" to="c2_e1" vehsPerHour="4" from="w1_c1"/>
   <flow id="105" begin="23400" end="25200" to="c4_e2" vehsPerHour="1" from="w2_c3"/>
   <flow id="106" begin="23400" end="25200" to="c1_w1" vehsPerHour="3" from="e1_c2"/>
   <flow id="107" begin="23400" end="25200" to="c3_w2" vehsPerHour="1" from="e2_c4"/>
   <flow id="108" begin="23400" end="25200" to="c3_s1" vehsPerHour="26" from="n1_c1"/>
   <flow id="109" begin="23400" end="25200" to="c4_s2" vehsPerHour="16" from="n2_c2"/>
   <flow id="110" begin="23400" end="25200" to="c1_n1" vehsPerHour="22" from="s1_c3"/>
   <flow id="111" begin="23400" end="25200" to="c2_n2" vehsPerHour="23" from="s2_c4"/>
   <flow id="112" begin="25200" end="27000" to="c2_e1" vehsPerHour="2" from="w1_c1"/>
   <flow id="113" begin="25200" end="27000" to="c4_e2" vehsPerHour="4" from="w2_c3"/>
   <flow id="114" begin="25200" end="27000" to="c1_w1" vehsPerHour="4" from="e1_c2"/>
   <flow id="115" begin="25200" end="27000" to="c3_w2" vehsPerHour="5" from="e2_c4"/>
   <flow id="116" begin="25200" end="27000" to="c3_s1" vehsPerHour="21" from="n1_c1"/>
   <flow id="117" begin="25200" end="27000" to="c4_s2" vehsPerHour="16" from="n2_c2"/>
   <flow id="118" begin="25200" end="27000" to="c1_n1" vehsPerHour="20" from="s1_c3"/>
   <flow id="119" begin="25200" end="27000" to="c2_n2" vehsPerHour="22" from="s2_c4"/>
   <flow id="120" begin="27000" end="28800" to="c2_e1" vehsPerHour="25" from="w1_c1"/>
   <flow id="121" begin="27000" end="28800" to="c4_e2" vehsPerHour="18" from="w2_c3"/>
   <flow id="122" begin="27000" end="28800" to="c1_w1" vehsPerHour="16" from="e1_c2"/>
   <flow id="123" begin="27000" end="28800" to="c3_w2" vehsPerHour="18" from="e2_c4"/>
   <flow id="124" begin="27000" end="28800" to="c3_s1" vehsPerHour="18" from="n1_c1"/>
   <flow id="125" begin="27000" end="28800" to="c4_s2" vehsPerHour="18" from="n2_c2"/>
   <flow id="126" begin="27000" end="28800" to="c1_n1" vehsPerHour="18" from="s1_c3"/>
   <flow id="127" begin="27000" end="28800" to="c2_n2" vehsPerHour="26" from="s2_c4"/>
   <flow id="128" begin="28800" end="30600" to="c2_e1" vehsPerHour="26" from="w1_c1"/>
   <flow id="129" begin="28800" end="30600" to="c4_e2" vehsPerHour="14" from="w2_c3"/>
   <flow id="130" begin="28800" end="30600" to="c1_w1" vehsPerHour="21" from="e1_c2"/>
   <flow id="131" begin="28800" end="30600" to="c3_w2" vehsPerHour="16" from="e2_c4"/>
   <flow id="132" begin="28800" end="30600" to="c3_s1" vehsPerHour="159" from="n1_c1"/>
   <flow id="133" begin="28800" end="30600" to="c4_s2" vehsPerHour="144" from="n2_c2"/>
   <flow id="134" begin="28800" end="30600" to="c1_n1" vehsPerHour="176" from="s1_c3"/>
   <flow id="135" begin="28800" end="30600" to="c2_n2" vehsPerHour="179" from="s2_c4"/>
   <flow id="136" begin="30600" end="32400" to="c2_e1" vehsPerHour="108" from="w1_c1"/>
   <flow id="137" begin="30600" end="32400" to="c4_e2" vehsPerHour="125" from="w2_c3"/>
   <flow id="138" begin="30600" end="32400" to="c1_w1" vehsPerHour="184" from="e1_c2"/>
   <flow id="139" begin="30600" end="32400" to="c3_w2" vehsPerHour="143" from="e2_c4"/>
   <flow id="140" begin="30600" end="32400" to="c3_s1" vehsPerHour="161" from="n1_c1"/>
   <flow id="141" begin="30600" end="32400" to="c4_s2" vehsPerHour="170" from="n2_c2"/>
   <flow id="142" begin="30600" end="32400" to="c1_n1" vehsPerHour="164" from="s1_c3"/>
   <flow id="143" begin="30600" end="32400" to="c2_n2" vehsPerHour="190" from="s2_c4"/>
   <flow id="144" begin="32400" end="34200" to="c2_e1" vehsPerHour="140" from="w1_c1"/>
   <flow id="145" begin="32400" end="34200" to="c4_e2" vehsPerHour="141" from="w2_c3"/>
   <flow id="146" begin="32400" end="34200" to="c1_w1" vehsPerHour="157" from="e1_c2"/>
   <flow id="147" begin="32400" end="34200" to="c3_w2" vehsPerHour="164" from="e2_c4"/>
   <flow id="148" begin="32400" end="34200" to="c3_s1" vehsPerHour="162" from="n1_c1"/>
   <flow id="149" begin="32400" end="34200" to="c4_s2" vehsPerHour="154" from="n2_c2"/>
   <flow id="150" begin="32400" end="34200" to="c1_n1" vehsPerHour="128" from="s1_c3"/>
   <flow id="151" begin="32400" end="34200" to="c2_n2" vehsPerHour="130" from="s2_c4"/>
   <flow id="152" begin="34200" end="36000" to="c2_e1" vehsPerHour="107" from="w1_c1"/>
   <flow id="153" begin="34200" end="36000" to="c4_e2" vehsPerHour="169" from="w2_c3"/>
   <flow id="154" begin="34200" end="36000" to="c1_w1" vehsPerHour="180" from="e1_c2"/>
   <flow id="155" begin="34200" end="36000" to="c3_w2" vehsPerHour="155" from="e2_c4"/>
   <flow id="156" begin="34200" end="36000" to="c3_s1" vehsPerHour="175" from="n1_c1"/>
   <flow id="157" begin="34200" end="36000" to="c4_s2" vehsPerHour="107" from="n2_c2"/>
   <flow id="158" begin="34200" end="36000" to="c1_n1" vehsPerHour="135" from="s1_c3"/>
   <flow id="159" begin="34200" end="36000" to="c2_n2" vehsPerHour="126" from="s2_c4"/>
   <flow id="160" begin="36000" end="37800" to="c2_e1" vehsPerHour="164" from="w1_c1"/>
   <flow id="161" begin="36000" end="37800" to="c4_e2" vehsPerHour="123" from="w2_c3"/>
   <flow id="162" begin="36000" end="37800" to="c1_w1" vehsPerHour="189" from="e1_c2"/>
   <flow id="163" begin="36000" end="37800" to="c3_w2" vehsPerHour="140" from="e2_c4"/>
   <flow id="164" begin="36000" end="37800" to="c3_s1" vehsPerHour="169" from="n1_c1"/>
   <flow id="165" begin="36000" end="37800" to="c4_s2" vehsPerHour="137" from="n2_c2"/>
   <flow id="166" begin="36000" end="37800" to="c1_n1" vehsPerHour="140" from="s1_c3"/>
   <flow id="167" begin="36000" end="37800" to="c2_n2" vehsPerHour="168" from="s2_c4"/>
   <flow id="168" begin="37800" end="39600" to="c2_e1" vehsPerHour="121" from="w1_c1"/>
   <flow id="169" begin="37800" end="39600" to="c4_e2" vehsPerHour="171" from="w2_c3"/>
   <flow id="170" begin="37800" end="39600" to="c1_w1" vehsPerHour="112" from="e1_c2"/>
   <flow id="171" begin="37800" end="39600" to="c3_w2" vehsPerHour="169" from="e2_c4"/>
   <flow id="172" begin="37800" end="39600" to="c3_s1" vehsPerHour="16" from="n1_c1"/>
   <flow id="173" begin="37800" end="39600" to="c4_s2" vehsPerHour="25" from="n2_c2"/>
   <flow id="174" begin="37800" end="39600" to="c1_n1" vehsPerHour="15" from="s1_c3"/>
   <flow id="175" begin="37800" end="39600" to="c2_n2" vehsPerHour="20" from="s2_c4"/>
   <flow id="176" begin="39600" end="41400" to="c2_e1" vehsPerHour="183" from="w1_c1"/>
   <flow id="177" begin="39600" end="41400" to="c4_e2" vehsPerHour="137" from="w2_c3"/>
   <flow id="178" begin="39600" end="41400" to="c1_w1" vehsPerHour="134" from="e1_c2"/>
   <flow id="179" begin="39600" end="41400" to="c3_w2" vehsPerHour="119" from="e2_c4"/>
   <flow id="180" begin="39600" end="41400" to="c3_s1" vehsPerHour="17" from="n1_c1"/>
   <flow id="181" begin="39600" end="41400" to="c4_s2" vehsPerHour="23" from="n2_c2"/>
   <flow id="182" begin="39600" end="41400" to="c1_n1" vehsPerHour="23" from="s1_c3"/>
   <flow id="183" begin="39600" end="41400" to="c2_n2" vehsPerHour="23" from="s2_c4"/>
   <flow id="184" begin="41400" end="43200" to="c2_e1" vehsPerHour="123" from="w1_c1"/>
   <flow id="185" begin="41400" end="43200" to="c4_e2" vehsPerHour="131" from="w2_c3"/>
   <flow id="186" begin="41400" end="43200" to="c1_w1" vehsPerHour="134" from="e1_c2"/>
   <flow id="187" begin="41400" end="43200" to="c3_w2" vehsPerHour="158" from="e2_c4"/>
   <flow id="188" begin="41400" end="43200" to="c3_s1" vehsPerHour="18" from="n1_c1"/>
   <flow id="189" begin="41400" end="43200" to="c4_s2" vehsPerHour="17" from="n2_c2"/>
   <flow id="190" begin="41400" end="43200" to="c1_n1" vehsPerHour="26" from="s1_c3"/>
   <flow id="191" begin="41400" end="43200" to="c2_n2" vehsPerHour="24" from="s2_c4"/>
   <flow id="192" begin="43200" end="45000" to="c2_e1" vehsPerHour="19" from="w1_c1"/>
   <flow id="193" begin="43200" end="45000" to="c4_e2" vehsPerHour="17" from="w2_c3"/>
   <flow id="194" begin="43200" end="45000" to="c1_w1" vehsPerHour="20" from="e1_c2"/>
   <flow id="195" begin="43200" end="45000" to="c3_w2" vehsPerHour="14" from="e2_c4"/>
   <flow id="196" begin="43200" end="45000" to="c3_s1" vehsPerHour="22" from="n1_c1"/>
   <flow id="197" begin="43200" end="45000" to="c4_s2" vehsPerHour="18" from="n2_c2"/>
   <flow id="198" begin="43200" end="45000" to="c1_n1" vehsPerHour="14" from="s1_c3"/>
   <flow id="199" begin="43200" end="45000" to="c2_n2" vehsPerHour="26" from="s2_c4"/>
   <flow id="200" begin="45000" end="46800" to="c2_e1" vehsPerHour="19" from="w1_c1"/>
   <flow id="201" begin="45000" end="46800" to="c4_e2" vehsPerHour="20" from="w2_c3"/>
   <flow id="202" begin="45000" end="46800" to="c1_w1" vehsPerHour="26" from="e1_c2"/>
   <flow id="203" begin="45000" end="46800" to="c3_w2" vehsPerHour="24" from="e2_c4"/>
   <flow id="204" begin="45000" end="46800" to="c3_s1" vehsPerHour="20" from="n1_c1"/>
   <flow id="205" begin="45000" end="46800" to="c4_s2" vehsPerHour="24" from="n2_c2"/>
   <flow id="206" begin="45000" end="46800" to="c1_n1" vehsPerHour="16" from="s1_c3"/>
   <flow id="207" begin="45000" end="46800" to="c2_n2" vehsPerHour="21" from="s2_c4"/>
   <flow id="208" begin="46800" end="48600" to="c2_e1" vehsPerHour="21" from="w1_c1"/>
   <flow id="209" begin="46800" end="48600" to="c4_e2" vehsPerHour="21" from="w2_c3"/>
   <flow id="210" begin="46800" end="48600" to="c1_w1" vehsPerHour="15" from="e1_c2"/>
   <flow id="211" begin="46800" end="48600" to="c3_w2" vehsPerHour="16" from="e2_c4"/>
   <flow id="212" begin="46800" end="48600" to="c3_s1" vehsPerHour="17" from="n1_c1"/>
   <flow id="213" begin="46800" end="48600" to="c4_s2" vehsPerHour="26" from="n2_c2"/>
   <flow id="214" begin="46800" end="48600" to="c1_n1" vehsPerHour="24" from="s1_c3"/>
   <flow id="215" begin="46800" end="48600" to="c2_n2" vehsPerHour="21" from="s2_c4"/>
   <flow id="216" begin="48600" end="50400" to="c2_e1" vehsPerHour="26" from="w1_c1"/>
   <flow id="217" begin="48600" end="50400" to="c4_e2" vehsPerHour="21" from="w2_c3"/>
   <flow id="218" begin="48600" end="50400" to="c1_w1" vehsPerHour="24" from="e1_c2"/>
   <flow id="219" begin="48600" end="50400" to="c3_w2" vehsPerHour="20" from="e2_c4"/>
   <flow id="220" begin="48600" end="50400" to="c3_s1" vehsPerHour="134" from="n1_c1"/>
   <flow id="221" begin="48600" end="50400" to="c4_s2" vehsPerHour="137" from="n2_c2"/>
   <flow id="222" begin="48600" end="50400" to="c1_n1" vehsPerHour="190" from="s1_c3"/>
   <flow id="223" begin="48600" end="50400" to="c2_n2" vehsPerHour="174" from="s2_c4"/>
   <flow id="224" begin="50400" end="52200" to="c2_e1" vehsPerHour="133" from="w1_c1"/>
   <flow id="225" begin="50400" end="52200" to="c4_e2" vehsPerHour="179" from="w2_c3"/>
   <flow id="226" begin="50400" end="52200" to="c1_w1" vehsPerHour="182" from="e1_c2"/>
   <flow id="227" begin="50400" end="52200" to="c3_w2" vehsPerHour="125" from="e2_c4"/>
   <flow id="228" begin="50400" end="52200" to="c3_s1" vehsPerHour="158" from="n1_c1"/>
   <flow id="229" begin="50400" end="52200" to="c4_s2" vehsPerHour="159" from="n2_c2"/>
   <flow id="230" begin="50400" end="52200" to="c1_n1" vehsPerHour="168" from="s1_c3"/>
   <flow id="231" begin="50400" end="52200" to="c2_n2" vehsPerHour="185" from="s2_c4"/>
   <flow id="232" begin="52200" end="54000" to="c2_e1" vehsPerHour="126" from="w1_c1"/>
   <flow id="233" begin="52200" end="54000" to="c4_e2" vehsPerHour="180" from="w2_c3"/>
   <flow id="234" begin="52200" end="54000" to="c1_w1" vehsPerHour="192" from="e1_c2"/>
   <flow id="235" begin="52200" end="54000" to="c3_w2" vehsPerHour="147" from="e2_c4"/>
   <flow id="236" begin="52200" end="54000" to="c3_s1" vehsPerHour="114" from="n1_c1"/>
   <flow id="237" begin="52200" end="54000" to="c4_s2" vehsPerHour="194" from="n2_c2"/>
   <flow id="238" begin="52200" end="54000" to="c1_n1" vehsPerHour="115" from="s1_c3"/>
   <flow id="239" begin="52200" end="54000" to="c2_n2" vehsPerHour="183" from="s2_c4"/>
   <flow id="240" begin="54000" end="55800" to="c2_e1" vehsPerHour="183" from="w1_c1"/>
   <flow id="241" begin="54000" end="55800" to="c4_e2" vehsPerHour="170" from="w2_c3"/>
   <flow id="242" begin="54000" end="55800" to="c1_w1" vehsPerHour="177" from="e1_c2"/>
   <flow id="243" begin="54000" end="55800" to="c3_w2" vehsPerHour="170" from="e2_c4"/>
   <flow id="244" begin="54000" end="55800" to="c3_s1" vehsPerHour="184" from="n1_c1"/>
   <flow id="245" begin="54000" end="55800" to="c4_s2" vehsPerHour="188" from="n2_c2"/>
   <flow id="246" begin="54000" end="55800" to="c1_n1" vehsPerHour="192" from="s1_c3"/>
   <flow id="247" begin="54000" end="55800" to="c2_n2" vehsPerHour="105" from="s2_c4"/>
   <flow id="248" begin="55800" end="57600" to="c2_e1" vehsPerHour="176" from="w1_c1"/>
   <flow id="249" begin="55800" end="57600" to="c4_e2" vehsPerHour="133" from="w2_c3"/>
   <flow id="250" begin="55800" end="57600" to="c1_w1" vehsPerHour="129" from="e1_c2"/>
   <flow id="251" begin="55800" end="57600" to="c3_w2" vehsPerHour="193" from="e2_c4"/>
   <flow id="252" begin="55800" end="57600" to="c3_s1" vehsPerHour="116" from="n1_c1"/>
   <flow id="253" begin="55800" end="57600" to="c4_s2" vehsPerHour="181" from="n2_c2"/>
   <flow id="254" begin="55800" end="57600" to="c1_n1" vehsPerHour="125" from="s1_c3"/>
   <flow id="255" begin="55800" end="57600" to="c2_n2" vehsPerHour="123" from="s2_c4"/>
   <flow id="256" begin="57600" end="59400" to="c2_e1" vehsPerHour="25" from="w1_c1"/>
   <flow id="257" begin="57600" end="59400" to="c4_e2" vehsPerHour="17" from="w2_c3"/>
   <flow id="258" begin="57600" end="59400" to="c1_w1" vehsPerHour="17" from="e1_c2"/>
   <flow id="259" begin="57600" end="59400" to="c3_w2" vehsPerHour="16" from="e2_c4"/>
   <flow id="260" begin="57600" end="59400" to="c3_s1" vehsPerHour="388" from="n1_c1"/>
   <flow id="261" begin="57600" end="59400" to="c4_s2" vehsPerHour="411" from="n2_c2"/>
   <flow id="262" begin="57600" end="59400" to="c1_n1" vehsPerHour="524" from="s1_c3"/>
   <flow id="263" begin="57600" end="59400" to="c2_n2" vehsPerHour="552" from="s2_c4"/>
   <flow id="264" begin="59400" end="61200" to="c2_e1" vehsPerHour="19" from="w1_c1"/>
   <flow id="265" begin="59400" end="61200" to="c4_e2" vehsPerHour="26" from="w2_c3"/>
   <flow id="266" begin="59400" end="61200" to="c1_w1" vehsPerHour="19" from="e1_c2"/>
   <flow id="267" begin="59400" end="61200" to="c3_w2" vehsPerHour="18" from="e2_c4"/>
   <flow id="268" begin="59400" end="61200" to="c3_s1" vehsPerHour="593" from="n1_c1"/>
   <flow id="269" begin="59400" end="61200" to="c4_s2" vehsPerHour="583" from="n2_c2"/>
   <flow id="270" begin="59400" end="61200" to="c1_n1" vehsPerHour="635" from="s1_c3"/>
   <flow id="271" begin="59400" end="61200" to="c2_n2" vehsPerHour="534" from="s2_c4"/>
   <flow id="272" begin="61200" end="63000" to="c2_e1" vehsPerHour="19" from="w1_c1"/>
   <flow id="273" begin="61200" end="63000" to="c4_e2" vehsPerHour="19" from="w2_c3"/>
   <flow id="274" begin="61200" end="63000" to="c1_w1" vehsPerHour="24" from="e1_c2"/>
   <flow id="275" begin="61200" end="63000" to="c3_w2" vehsPerHour="25" from="e2_c4"/>
   <flow id="276" begin="61200" end="63000" to="c3_s1" vehsPerHour="618" from="n1_c1"/>
   <flow id="277" begin="61200" end="63000" to="c4_s2" vehsPerHour="418" from="n2_c2"/>
   <flow id="278" begin="61200" end="63000" to="c1_n1" vehsPerHour="556" from="s1_c3"/>
   <flow id="279" begin="61200" end="63000" to="c2_n2" vehsPerHour="557" from="s2_c4"/>
   <flow id="280" begin="63000" end="64800" to="c2_e1" vehsPerHour="25" from="w1_c1"/>
   <flow id="281" begin="63000" end="64800" to="c4_e2" vehsPerHour="24" from="w2_c3"/>
   <flow id="282" begin="63000" end="64800" to="c1_w1" vehsPerHour="22" from="e1_c2"/>
   <flow id="283" begin="63000" end="64800" to="c3_w2" vehsPerHour="22" from="e2_c4"/>
   <flow id="284" begin="63000" end="64800" to="c3_s1" vehsPerHour="175" from="n1_c1"/>
   <flow id="285" begin="63000" end="64800" to="c4_s2" vehsPerHour="113" from="n2_c2"/>
   <flow id="286" begin="63000" end="64800" to="c1_n1" vehsPerHour="166" from="s1_c3"/>
   <flow id="287" begin="63000" end="64800" to="c2_n2" vehsPerHour="181" from="s2_c4"/>
   <flow id="288" begin="64800" end="66600" to="c2_e1" vehsPerHour="119" from="w1_c1"/>
   <flow id="289" begin="64800" end="66600" to="c4_e2" vehsPerHour="153" from="w2_c3"/>
   <flow id="290" begin="64800" end="66600" to="c1_w1" vehsPerHour="114" from="e1_c2"/>
   <flow id="291" begin="64800" end="66600" to="c3_w2" vehsPerHour="168" from="e2_c4"/>
   <flow id="292" begin="64800" end="66600" to="c3_s1" vehsPerHour="23" from="n1_c1"/>
   <flow id="293" begin="64800" end="66600" to="c4_s2" vehsPerHour="17" from="n2_c2"/>
   <flow id="294" begin="64800" end="66600" to="c1_n1" vehsPerHour="25" from="s1_c3"/>
   <flow id="295" begin="64800" end="66600" to="c2_n2" vehsPerHour="14" from="s2_c4"/>
   <flow id="296" begin="66600" end="68400" to="c2_e1" vehsPerHour="162" from="w1_c1"/>
   <flow id="297" begin="66600" end="68400" to="c4_e2" vehsPerHour="167" from="w2_c3"/>
   <flow id="298" begin="66600" end="68400" to="c1_w1" vehsPerHour="127" from="e1_c2"/>
   <flow id="299" begin="66600" end="68400" to="c3_w2" vehsPerHour="164" from="e2_c4"/>
   <flow id="300" begin="66600" end="68400" to="c3_s1" vehsPerHour="21" from="n1_c1"/>
   <flow id="301" begin="66600" end="68400" to="c4_s2" vehsPerHour="16" from="n2_c2"/>
   <flow id="302" begin="66600" end="68400" to="c1_n1" vehsPerHour="25" from="s1_c3"/>
   <flow id="303" begin="66600" end="68400" to="c2_n2" vehsPerHour="18" from="s2_c4"/>
   <flow id="304" begin="68400" end="70200" to="c2_e1" vehsPerHour="151" from="w1_c1"/>
   <flow id="305" begin="68400" end="70200" to="c4_e2" vehsPerHour="111" from="w2_c3"/>
   <flow id="306" begin="68400" end="70200" to="c1_w1" vehsPerHour="163" from="e1_c2"/>
   <flow id="307" begin="68400" end="70200" to="c3_w2" vehsPerHour="186" from="e2_c4"/>
   <flow id="308" begin="68400" end="70200" to="c3_s1" vehsPerHour="144" from="n1_c1"/>
   <flow id="309" begin="68400" end="70200" to="c4_s2" vehsPerHour="131" from="n2_c2"/>
   <flow id="310" begin="68400" end="70200" to="c1_n1" vehsPerHour="130" from="s1_c3"/>
   <flow id="311" begin="68400" end="70200" to="c2_n2" vehsPerHour="142" from="s2_c4"/>
   <flow id="312" begin="70200" end="72000" to="c2_e1" vehsPerHour="124" from="w1_c1"/>
   <flow id="313" begin="70200" end="72000" to="c4_e2" vehsPerHour="142" from="w2_c3"/>
   <flow id="314" begin="70200" end="72000" to="c1_w1" vehsPerHour="181" from="e1_c2"/>
   <flow id="315" begin="70200" end="72000" to="c3_w2" vehsPerHour="180" from="e2_c4"/>
   <flow id="316" begin="70200" end="72000" to="c3_s1" vehsPerHour="121" from="n1_c1"/>
   <flow id="317" begin="70200" end="72000" to="c4_s2" vehsPerHour="111" from="n2_c2"/>
   <flow id="318" begin="70200" end="72000" to="c1_n1" vehsPerHour="190" from="s1_c3"/>
   <flow id="319" begin="70200" end="72000" to="c2_n2" vehsPerHour="178" from="s2_c4"/>
   <flow id="320" begin="72000" end="73800" to="c2_e1" vehsPerHour="26" from="w1_c1"/>
   <flow id="321" begin="72000" end="73800" to="c4_e2" vehsPerHour="21" from="w2_c3"/>
   <flow id="322" begin="72000" end="73800" to="c1_w1" vehsPerHour="22" from="e1_c2"/>
   <flow id="323" begin="72000" end="73800" to="c3_w2" vehsPerHour="24" from="e2_c4"/>
   <flow id="324" begin="72000" end="73800" to="c3_s1" vehsPerHour="153" from="n1_c1"/>
   <flow id="325" begin="72000" end="73800" to="c4_s2" vehsPerHour="127" from="n2_c2"/>
   <flow id="326" begin="72000" end="73800" to="c1_n1" vehsPerHour="195" from="s1_c3"/>
   <flow id="327" begin="72000" end="73800" to="c2_n2" vehsPerHour="150" from="s2_c4"/>
   <flow id="328" begin="73800" end="75600" to="c2_e1" vehsPerHour="17" from="w1_c1"/>
   <flow id="329" begin="73800" end="75600" to="c4_e2" vehsPerHour="15" from="w2_c3"/>
   <flow id="330" begin="73800" end="75600" to="c1_w1" vehsPerHour="15" from="e1_c2"/>
   <flow id="331" begin="73800" end="75600" to="c3_w2" vehsPerHour="20" from="e2_c4"/>
   <flow id="332" begin="73800" end="75600" to="c3_s1" vehsPerHour="167" from="n1_c1"/>
   <flow id="333" begin="73800" end="75600" to="c4_s2" vehsPerHour="175" from="n2_c2"/>
   <flow id="334" begin="73800" end="75600" to="c1_n1" vehsPerHour="194" from="s1_c3"/>
   <flow id="335" begin="73800" end="75600" to="c2_n2" vehsPerHour="179" from="s2_c4"/>
   <flow id="336" begin="75600" end="77400" to="c2_e1" vehsPerHour="26" from="w1_c1"/>
   <flow id="337" begin="75600" end="77400" to="c4_e2" vehsPerHour="24" from="w2_c3"/>
   <flow id="338" begin="75600" end="77400" to="c1_w1" vehsPerHour="22" from="e1_c2"/>
   <flow id="339" begin="75600" end="77400" to="c3_w2" vehsPerHour="17" from="e2_c4"/>
   <flow id="340" begin="75600" end="77400" to="c3_s1" vehsPerHour="20" from="n1_c1"/>
   <flow id="341" begin="75600" end="77400" to="c4_s2" vehsPerHour="26" from="n2_c2"/>
   <flow id="342" begin="75600" end="77400" to="c1_n1" vehsPerHour="15" from="s1_c3"/>
   <flow id="343" begin="75600" end="77400" to="c2_n2" vehsPerHour="25" from="s2_c4"/>
   <flow id="344" begin="77400" end="79200" to="c2_e1" vehsPerHour="19" from="w1_c1"/>
   <flow id="345" begin="77400" end="79200" to="c4_e2" vehsPerHour="19" from="w2_c3"/>