<?xml version="1.0" encoding="UTF-8"?>
<edges 
        xmlns:xsi="http://www.w3.org/2001/XMLSchema-instance" xsi:noNamespaceSchemaLocation=
        "http://sumo.dlr.de/xsd/edges_file.xsd">
  <edge id="n1i" from="n1" to="c1" priority="-1"/> 
  <edge id="n1o" from="c1" to="n1" priority="-1"/> 
  <edge id="w1i" from="w1" to="c1" priority="-1"/> 
  <edge id="w1o" from="c1" to="w1" priority="-1"/> 
  <edge id="e1i" from="e1" to="c1" priority="-1"/> 
  <edge id="e1o" from="c1" to="e1" priority="-1"/> 
  <edge id="s1i" from="s1" to="c1" priority="-1"/> 
  <edge id="s1o" from="c1" to="s1" priority="-1"/> 
</edges>
