<?xml version="1.0" ?>
<additional>
   <tlLogic id="c1" programID="static_program_1" type="static" offset="0">
      <phase duration="12" state="GGggrrrrGGggrrrr"/>
      <phase duration="5" state="yyggrrrryyggrrrr"/>
      <phase duration="5" state="rrGGrrrrrrGGrrrr"/>
      <phase duration="5" state="rryyrrrrrryyrrrr"/>
      <phase duration="48" state="rrrrGGggrrrrGGgg"/>
      <phase duration="5" state="rrrryyggrrrryygg"/>
      <phase duration="5" state="rrrrrrGGrrrrrrGG"/>
      <phase duration="5" state="rrrrrryyrrrrrryy"/>
   </tlLogic>
   <tlLogic id="c2" programID="static_program_1" type="static" offset="0">
      <phase duration="12" state="GGggrrrrGGggrrrr"/>
      <phase duration="5" state="yyggrrrryyggrrrr"/>
      <phase duration="5" state="rrGGrrrrrrGGrrrr"/>
      <phase duration="5" state="rryyrrrrrryyrrrr"/>
      <phase duration="48" state="rrrrGGggrrrrGGgg"/>
      <phase duration="5" state="rrrryyggrrrryygg"/>
      <phase duration="5" state="rrrrrrGGrrrrrrGG"/>
      <phase duration="5" state="rrrrrryyrrrrrryy"/>
   </tlLogic>
   <tlLogic id="c3" programID="static_program_1" type="static" offset="0">
      <phase duration="12" state="GGggrrrrGGggrrrr"/>
      <phase duration="5" state="yyggrrrryyggrrrr"/>
      <phase duration="5" state="rrGGrrrrrrGGrrrr"/>
      <phase duration="5" state="rryyrrrrrryyrrrr"/>
      <phase duration="48" state="rrrrGGggrrrrGGgg"/>
      <phase duration="5" state="rrrryyggrrrryygg"/>
      <phase duration="5" state="rrrrrrGGrrrrrrGG"/>
      <phase duration="5" state="rrrrrryyrrrrrryy"/>
   </tlLogic>
   <tlLogic id="c4" programID="static_program_1" type="static" offset="0">
      <phase duration="12" state="GGggrrrrGGggrrrr"/>
      <phase duration="5" state="yyggrrrryyggrrrr"/>
      <phase duration="5" state="rrGGrrrrrrGGrrrr"/>
      <phase duration="5" state="rryyrrrrrryyrrrr"/>
      <phase duration="48" state="rrrrGGggrrrrGGgg"/>
      <phase duration="5" state="rrrryyggrrrryygg"/>
      <phase duration="5" state="rrrrrrGGrrrrrrGG"/>
      <phase duration="5" state="rrrrrryyrrrrrryy"/>
   </tlLogic>
   <tlLogic id="c5" programID="static_program_1" type="static" offset="0">
      <phase duration="12" state="GGggrrrrGGggrrrr"/>
      <phase duration="5" state="yyggrrrryyggrrrr"/>
      <phase duration="5" state="rrGGrrrrrrGGrrrr"/>
      <phase duration="5" state="rryyrrrrrryyrrrr"/>
      <phase duration="48" state="rrrrGGggrrrrGGgg"/>
      <phase duration="5" state="rrrryyggrrrryygg"/>
      <phase duration="5" state="rrrrrrGGrrrrrrGG"/>
      <phase duration="5" state="rrrrrryyrrrrrryy"/>
   </tlLogic>
   <tlLogic id="c6" programID="static_program_1" type="static" offset="0">
      <phase duration="12" state="GGggrrrrGGggrrrr"/>
      <phase duration="5" state="yyggrrrryyggrrrr"/>
      <phase duration="5" state="rrGGrrrrrrGGrrrr"/>
      <phase duration="5" state="rryyrrrrrryyrrrr"/>
      <phase duration="48" state="rrrrGGggrrrrGGgg"/>
      <phase duration="5" state="rrrryyggrrrryygg"/>
      <phase duration="5" state="rrrrrrGGrrrrrrGG"/>
      <phase duration="5" state="rrrrrryyrrrrrryy"/>
   </tlLogic>
   <tlLogic id="c7" programID="static_program_1" type="static" offset="0">
      <phase duration="12" state="GGggrrrrGGggrrrr"/>
      <phase duration="5" state="yyggrrrryyggrrrr"/>
      <phase duration="5" state="rrGGrrrrrrGGrrrr"/>
      <phase duration="5" state="rryyrrrrrryyrrrr"/>
      <phase duration="48" state="rrrrGGggrrrrGGgg"/>
      <phase duration="5" state="rrrryyggrrrryygg"/>
      <phase duration="5" state="rrrrrrGGrrrrrrGG"/>
      <phase duration="5" state="rrrrrryyrrrrrryy"/>
   </tlLogic>
   <tlLogic id="c8" programID="static_program_1" type="static" offset="0">
      <phase duration="12" state="GGggrrrrGGggrrrr"/>
      <phase duration="5" state="yyggrrrryyggrrrr"/>
      <phase duration="5" state="rrGGrrrrrrGGrrrr"/>
      <phase duration="5" state="rryyrrrrrryyrrrr"/>
      <phase duration="48" state="rrrrGGggrrrrGGgg"/>
      <phase duration="5" state="rrrryyggrrrryygg"/>
      <phase duration="5" state="rrrrrrGGrrrrrrGG"/>
      <phase duration="5" state="rrrrrryyrrrrrryy"/>
   </tlLogic>
   <tlLogic id="c9" programID="static_program_1" type="static" offset="0">
      <phase duration="12" state="GGggrrrrGGggrrrr"/>
      <phase duration="5" state="yyggrrrryyggrrrr"/>
      <phase duration="5" state="rrGGrrrrrrGGrrrr"/>
      <phase duration="5" state="rryyrrrrrryyrrrr"/>
      <phase duration="48" state="rrrrGGggrrrrGGgg"/>
      <phase duration="5" state="rrrryyggrrrryygg"/>
      <phase duration="5" state="rrrrrrGGrrrrrrGG"/>
      <phase duration="5" state="rrrrrryyrrrrrryy"/>
   </tlLogic>
   <tlLogic id="c1" programID="static_program_2" type="static" offset="0">
      <phase duration="20" state="GGggrrrrGGggrrrr"/>
      <phase duration="5" state="yyggrrrryyggrrrr"/>
      <phase duration="5" state="rrGGrrrrrrGGrrrr"/>
      <phase duration="5" state="rryyrrrrrryyrrrr"/>
      <phase duration="40" state="rrrrGGggrrrrGGgg"/>
      <phase duration="5" state="rrrryyggrrrryygg"/>
      <phase duration="5" state="rrrrrrGGrrrrrrGG"/>
      <phase duration="5" state="rrrrrryyrrrrrryy"/>
   </tlLogic>
   <tlLogic id="c2" programID="static_program_2" type="static" offset="0">
      <phase duration="20" state="GGggrrrrGGggrrrr"/>
      <phase duration="5" state="yyggrrrryyggrrrr"/>
      <phase duration="5" state="rrGGrrrrrrGGrrrr"/>
      <phase duration="5" state="rryyrrrrrryyrrrr"/>
      <phase duration="40" state="rrrrGGggrrrrGGgg"/>
      <phase duration="5" state="rrrryyggrrrryygg"/>
      <phase duration="5" state="rrrrrrGGrrrrrrGG"/>
      <phase duration="5" state="rrrrrryyrrrrrryy"/>
   </tlLogic>
   <tlLogic id="c3" programID="static_program_2" type="static" offset="0">
      <phase duration="20" state="GGggrrrrGGggrrrr"/>
      <phase duration="5" state="yyggrrrryyggrrrr"/>
      <phase duration="5" state="rrGGrrrrrrGGrrrr"/>
      <phase duration="5" state="rryyrrrrrryyrrrr"/>
      <phase duration="40" state="rrrrGGggrrrrGGgg"/>
      <phase duration="5" state="rrrryyggrrrryygg"/>
      <phase duration="5" state="rrrrrrGGrrrrrrGG"/>
      <phase duration="5" state="rrrrrryyrrrrrryy"/>
   </tlLogic>
   <tlLogic id="c4" programID="static_program_2" type="static" offset="0">
      <phase duration="20" state="GGggrrrrGGggrrrr"/>
      <phase duration="5" state="yyggrrrryyggrrrr"/>
      <phase duration="5" state="rrGGrrrrrrGGrrrr"/>
      <phase duration="5" state="rryyrrrrrryyrrrr"/>
      <phase duration="40" state="rrrrGGggrrrrGGgg"/>
      <phase duration="5" state="rrrryyggrrrryygg"/>
      <phase duration="5" state="rrrrrrGGrrrrrrGG"/>
      <phase duration="5" state="rrrrrryyrrrrrryy"/>
   </tlLogic>
   <tlLogic id="c5" programID="static_program_2" type="static" offset="0">
      <phase duration="20" state="GGggrrrrGGggrrrr"/>
      <phase duration="5" state="yyggrrrryyggrrrr"/>
      <phase duration="5" state="rrGGrrrrrrGGrrrr"/>
      <phase duration="5" state="rryyrrrrrryyrrrr"/>
      <phase duration="40" state="rrrrGGggrrrrGGgg"/>
      <phase duration="5" state="rrrryyggrrrryygg"/>
      <phase duration="5" state="rrrrrrGGrrrrrrGG"/>
      <phase duration="5" state="rrrrrryyrrrrrryy"/>
   </tlLogic>
   <tlLogic id="c6" programID="static_program_2" type="static" offset="0">
      <phase duration="20" state="GGggrrrrGGggrrrr"/>
      <phase duration="5" state="yyggrrrryyggrrrr"/>
      <phase duration="5" state="rrGGrrrrrrGGrrrr"/>
      <phase duration="5" state="rryyrrrrrryyrrrr"/>
      <phase duration="40" state="rrrrGGggrrrrGGgg"/>
      <phase duration="5" state="rrrryyggrrrryygg"/>
      <phase duration="5" state="rrrrrrGGrrrrrrGG"/>
      <phase duration="5" state="rrrrrryyrrrrrryy"/>
   </tlLogic>
   <tlLogic id="c7" programID="static_program_2" type="static" offset="0">
      <phase duration="20" state="GGggrrrrGGggrrrr"/>
      <phase duration="5" state="yyggrrrryyggrrrr"/>
      <phase duration="5" state="rrGGrrrrrrGGrrrr"/>
      <phase duration="5" state="rryyrrrrrryyrrrr"/>
      <phase duration="40" state="rrrrGGggrrrrGGgg"/>
      <phase duration="5" state="rrrryyggrrrryygg"/>
      <phase duration="5" state="rrrrrrGGrrrrrrGG"/>
      <phase duration="5" state="rrrrrryyrrrrrryy"/>
   </tlLogic>
   <tlLogic id="c8" programID="static_program_2" type="static" offset="0">
      <phase duration="20" state="GGggrrrrGGggrrrr"/>
      <phase duration="5" state="yyggrrrryyggrrrr"/>
      <phase duration="5" state="rrGGrrrrrrGGrrrr"/>
      <phase duration="5" state="rryyrrrrrryyrrrr"/>
      <phase duration="40" state="rrrrGGggrrrrGGgg"/>
      <phase duration="5" state="rrrryyggrrrryygg"/>
      <phase duration="5" state="rrrrrrGGrrrrrrGG"/>
      <phase duration="5" state="rrrrrryyrrrrrryy"/>
   </tlLogic>
   <tlLogic id="c9" programID="static_program_2" type="static" offset="0">
      <phase duration="20" state="GGggrrrrGGggrrrr"/>
      <phase duration="5" state="yyggrrrryyggrrrr"/>
      <phase duration="5" state="rrGGrrrrrrGGrrrr"/>
      <phase duration="5" state="rryyrrrrrryyrrrr"/>
      <phase duration="40" state="rrrrGGggrrrrGGgg"/>
      <phase duration="5" state="rrrryyggrrrryygg"/>
      <phase duration="5" state="rrrrrrGGrrrrrrGG"/>
      <phase duration="5" state="rrrrrryyrrrrrryy"/>
   </tlLogic>
   <tlLogic id="c1" programID="static_program_3" type="static" offset="0">
      <phase duration="30" state="GGggrrrrGGggrrrr"/>
      <phase duration="5" state="yyggrrrryyggrrrr"/>
      <phase duration="5" state="rrGGrrrrrrGGrrrr"/>
      <phase duration="5" state="rryyrrrrrryyrrrr"/>
      <phase duration="30" state="rrrrGGggrrrrGGgg"/>
      <phase duration="5" state="rrrryyggrrrryygg"/>
      <phase duration="5" state="rrrrrrGGrrrrrrGG"/>
      <phase duration="5" state="rrrrrryyrrrrrryy"/>
   </tlLogic>
   <tlLogic id="c2" programID="static_program_3" type="static" offset="0">
      <phase duration="30" state="GGggrrrrGGggrrrr"/>
      <phase duration="5" state="yyggrrrryyggrrrr"/>
      <phase duration="5" state="rrGGrrrrrrGGrrrr"/>
      <phase duration="5" state="rryyrrrrrryyrrrr"/>
      <phase duration="30" state="rrrrGGggrrrrGGgg"/>
      <phase duration="5" state="rrrryyggrrrryygg"/>
      <phase duration="5" state="rrrrrrGGrrrrrrGG"/>
      <phase duration="5" state="rrrrrryyrrrrrryy"/>
   </tlLogic>
   <tlLogic id="c3" programID="static_program_3" type="static" offset="0">
      <phase duration="30" state="GGggrrrrGGggrrrr"/>
      <phase duration="5" state="yyggrrrryyggrrrr"/>
      <phase duration="5" state="rrGGrrrrrrGGrrrr"/>
      <phase duration="5" state="rryyrrrrrryyrrrr"/>
      <phase duration="30" state="rrrrGGggrrrrGGgg"/>
      <phase duration="5" state="rrrryyggrrrryygg"/>
      <phase duration="5" state="rrrrrrGGrrrrrrGG"/>
      <phase duration="5" state="rrrrrryyrrrrrryy"/>
   </tlLogic>
   <tlLogic id="c4" programID="static_program_3" type="static" offset="0">
      <phase duration="30" state="GGggrrrrGGggrrrr"/>
      <phase duration="5" state="yyggrrrryyggrrrr"/>
      <phase duration="5" state="rrGGrrrrrrGGrrrr"/>
      <phase duration="5" state="rryyrrrrrryyrrrr"/>
      <phase duration="30" state="rrrrGGggrrrrGGgg"/>
      <phase duration="5" state="rrrryyggrrrryygg"/>
      <phase duration="5" state="rrrrrrGGrrrrrrGG"/>
      <phase duration="5" state="rrrrrryyrrrrrryy"/>
   </tlLogic>
   <tlLogic id="c5" programID="static_program_3" type="static" offset="0">
      <phase duration="30" state="GGggrrrrGGggrrrr"/>
      <phase duration="5" state="yyggrrrryyggrrrr"/>
      <phase duration="5" state="rrGGrrrrrrGGrrrr"/>
      <phase duration="5" state="rryyrrrrrryyrrrr"/>
      <phase duration="30" state="rrrrGGggrrrrGGgg"/>
      <phase duration="5" state="rrrryyggrrrryygg"/>
      <phase duration="5" state="rrrrrrGGrrrrrrGG"/>
      <phase duration="5" state="rrrrrryyrrrrrryy"/>
   </tlLogic>
   <tlLogic id="c6" programID="static_program_3" type="static" offset="0">
      <phase duration="30" state="GGggrrrrGGggrrrr"/>
      <phase duration="5" state="yyggrrrryyggrrrr"/>
      <phase duration="5" state="rrGGrrrrrrGGrrrr"/>
      <phase duration="5" state="rryyrrrrrryyrrrr"/>
      <phase duration="30" state="rrrrGGggrrrrGGgg"/>
      <phase duration="5" state="rrrryyggrrrryygg"/>
      <phase duration="5" state="rrrrrrGGrrrrrrGG"/>
      <phase duration="5" state="rrrrrryyrrrrrryy"/>
   </tlLogic>
   <tlLogic id="c7" programID="static_program_3" type="static" offset="0">
      <phase duration="30" state="GGggrrrrGGggrrrr"/>
      <phase duration="5" state="yyggrrrryyggrrrr"/>
      <phase duration="5" state="rrGGrrrrrrGGrrrr"/>
      <phase duration="5" state="rryyrrrrrryyrrrr"/>
      <phase duration="30" state="rrrrGGggrrrrGGgg"/>
      <phase duration="5" state="rrrryyggrrrryygg"/>
      <phase duration="5" state="rrrrrrGGrrrrrrGG"/>
      <phase duration="5" state="rrrrrryyrrrrrryy"/>
   </tlLogic>
   <tlLogic id="c8" programID="static_program_3" type="static" offset="0">
      <phase duration="30" state="GGggrrrrGGggrrrr"/>
      <phase duration="5" state="yyggrrrryyggrrrr"/>
      <phase duration="5" state="rrGGrrrrrrGGrrrr"/>
      <phase duration="5" state="rryyrrrrrryyrrrr"/>
      <phase duration="30" state="rrrrGGggrrrrGGgg"/>
      <phase duration="5" state="rrrryyggrrrryygg"/>
      <phase duration="5" state="rrrrrrGGrrrrrrGG"/>
      <phase duration="5" state="rrrrrryyrrrrrryy"/>
   </tlLogic>
   <tlLogic id="c9" programID="static_program_3" type="static" offset="0">
      <phase duration="30" state="GGggrrrrGGggrrrr"/>
      <phase duration="5" state="yyggrrrryyggrrrr"/>
      <phase duration="5" state="rrGGrrrrrrGGrrrr"/>
      <phase duration="5" state="rryyrrrrrryyrrrr"/>
      <phase duration="30" state="rrrrGGggrrrrGGgg"/>
      <phase duration="5" state="rrrryyggrrrryygg"/>
      <phase duration="5" state="rrrrrrGGrrrrrrGG"/>
      <phase duration="5" state="rrrrrryyrrrrrryy"/>
   </tlLogic>
   <tlLogic id="c1" programID="static_program_4" type="static" offset="0">
      <phase duration="40" state="GGggrrrrGGggrrrr"/>
      <phase duration="5" state="yyggrrrryyggrrrr"/>
      <phase duration="5" state="rrGGrrrrrrGGrrrr"/>
      <phase duration="5" state="rryyrrrrrryyrrrr"/>
      <phase duration="20" state="rrrrGGggrrrrGGgg"/>
      <phase duration="5" state="rrrryyggrrrryygg"/>
      <phase duration="5" state="rrrrrrGGrrrrrrGG"/>
      <phase duration="5" state="rrrrrryyrrrrrryy"/>
   </tlLogic>
   <tlLogic id="c2" programID="static_program_4" type="static" offset="0">
      <phase duration="40" state="GGggrrrrGGggrrrr"/>
      <phase duration="5" state="yyggrrrryyggrrrr"/>
      <phase duration="5" state="rrGGrrrrrrGGrrrr"/>
      <phase duration="5" state="rryyrrrrrryyrrrr"/>
      <phase duration="20" state="rrrrGGggrrrrGGgg"/>
      <phase duration="5" state="rrrryyggrrrryygg"/>
      <phase duration="5" state="rrrrrrGGrrrrrrGG"/>
      <phase duration="5" state="rrrrrryyrrrrrryy"/>
   </tlLogic>
   <tlLogic id="c3" programID="static_program_4" type="static" offset="0">
      <phase duration="40" state="GGggrrrrGGggrrrr"/>
      <phase duration="5" state="yyggrrrryyggrrrr"/>
      <phase duration="5" state="rrGGrrrrrrGGrrrr"/>
      <phase duration="5" state="rryyrrrrrryyrrrr"/>
      <phase duration="20" state="rrrrGGggrrrrGGgg"/>
      <phase duration="5" state="rrrryyggrrrryygg"/>
      <phase duration="5" state="rrrrrrGGrrrrrrGG"/>
      <phase duration="5" state="rrrrrryyrrrrrryy"/>
   </tlLogic>
   <tlLogic id="c4" programID="static_program_4" type="static" offset="0">
      <phase duration="40" state="GGggrrrrGGggrrrr"/>
      <phase duration="5" state="yyggrrrryyggrrrr"/>
      <phase duration="5" state="rrGGrrrrrrGGrrrr"/>
      <phase duration="5" state="rryyrrrrrryyrrrr"/>
      <phase duration="20" state="rrrrGGggrrrrGGgg"/>
      <phase duration="5" state="rrrryyggrrrryygg"/>
      <phase duration="5" state="rrrrrrGGrrrrrrGG"/>
      <phase duration="5" state="rrrrrryyrrrrrryy"/>
   </tlLogic>
   <tlLogic id="c5" programID="static_program_4" type="static" offset="0">
      <phase duration="40" state="GGggrrrrGGggrrrr"/>
      <phase duration="5" state="yyggrrrryyggrrrr"/>
      <phase duration="5" state="rrGGrrrrrrGGrrrr"/>
      <phase duration="5" state="rryyrrrrrryyrrrr"/>
      <phase duration="20" state="rrrrGGggrrrrGGgg"/>
      <phase duration="5" state="rrrryyggrrrryygg"/>
      <phase duration="5" state="rrrrrrGGrrrrrrGG"/>
      <phase duration="5" state="rrrrrryyrrrrrryy"/>
   </tlLogic>
   <tlLogic id="c6" programID="static_program_4" type="static" offset="0">
      <phase duration="40" state="GGggrrrrGGggrrrr"/>
      <phase duration="5" state="yyggrrrryyggrrrr"/>
      <phase duration="5" state="rrGGrrrrrrGGrrrr"/>
      <phase duration="5" state="rryyrrrrrryyrrrr"/>
      <phase duration="20" state="rrrrGGggrrrrGGgg"/>
      <phase duration="5" state="rrrryyggrrrryygg"/>
      <phase duration="5" state="rrrrrrGGrrrrrrGG"/>
      <phase duration="5" state="rrrrrryyrrrrrryy"/>
   </tlLogic>
   <tlLogic id="c7" programID="static_program_4" type="static" offset="0">
      <phase duration="40" state="GGggrrrrGGggrrrr"/>
      <phase duration="5" state="yyggrrrryyggrrrr"/>
      <phase duration="5" state="rrGGrrrrrrGGrrrr"/>
      <phase duration="5" state="rryyrrrrrryyrrrr"/>
      <phase duration="20" state="rrrrGGggrrrrGGgg"/>
      <phase duration="5" state="rrrryyggrrrryygg"/>
      <phase duration="5" state="rrrrrrGGrrrrrrGG"/>
      <phase duration="5" state="rrrrrryyrrrrrryy"/>
   </tlLogic>
   <tlLogic id="c8" programID="static_program_4" type="static" offset="0">
      <phase duration="40" state="GGggrrrrGGggrrrr"/>
      <phase duration="5" state="yyggrrrryyggrrrr"/>
      <phase duration="5" state="rrGGrrrrrrGGrrrr"/>
      <phase duration="5" state="rryyrrrrrryyrrrr"/>
      <phase duration="20" state="rrrrGGggrrrrGGgg"/>
      <phase duration="5" state="rrrryyggrrrryygg"/>
      <phase duration="5" state="rrrrrrGGrrrrrrGG"/>
      <phase duration="5" state="rrrrrryyrrrrrryy"/>
   </tlLogic>
   <tlLogic id="c9" programID="static_program_4" type="static" offset="0">
      <phase duration="40" state="GGggrrrrGGggrrrr"/>
      <phase duration="5" state="yyggrrrryyggrrrr"/>
      <phase duration="5" state="rrGGrrrrrrGGrrrr"/>
      <phase duration="5" state="rryyrrrrrryyrrrr"/>
      <phase duration="20" state="rrrrGGggrrrrGGgg"/>
      <phase duration="5" state="rrrryyggrrrryygg"/>
      <phase duration="5" state="rrrrrrGGrrrrrrGG"/>
      <phase duration="5" state="rrrrrryyrrrrrryy"/>
   </tlLogic>
   <tlLogic id="c1" programID="static_program_5" type="static" offset="0">
      <phase duration="48" state="GGggrrrrGGggrrrr"/>
      <phase duration="5" state="yyggrrrryyggrrrr"/>
      <phase duration="5" state="rrGGrrrrrrGGrrrr"/>
      <phase duration="5" state="rryyrrrrrryyrrrr"/>
      <phase duration="12" state="rrrrGGggrrrrGGgg"/>
      <phase duration="5" state="rrrryyggrrrryygg"/>
      <phase duration="5" state="rrrrrrGGrrrrrrGG"/>
      <phase duration="5" state="rrrrrryyrrrrrryy"/>
   </tlLogic>
   <tlLogic id="c2" programID="static_program_5" type="static" offset="0">
      <phase duration="48" state="GGggrrrrGGggrrrr"/>
      <phase duration="5" state="yyggrrrryyggrrrr"/>
      <phase duration="5" state="rrGGrrrrrrGGrrrr"/>
      <phase duration="5" state="rryyrrrrrryyrrrr"/>
      <phase duration="12" state="rrrrGGggrrrrGGgg"/>
      <phase duration="5" state="rrrryyggrrrryygg"/>
      <phase duration="5" state="rrrrrrGGrrrrrrGG"/>
      <phase duration="5" state="rrrrrryyrrrrrryy"/>
   </tlLogic>
   <tlLogic id="c3" programID="static_program_5" type="static" offset="0">
      <phase duration="48" state="GGggrrrrGGggrrrr"/>
      <phase duration="5" state="yyggrrrryyggrrrr"/>
      <phase duration="5" state="rrGGrrrrrrGGrrrr"/>
      <phase duration="5" state="rryyrrrrrryyrrrr"/>
      <phase duration="12" state="rrrrGGggrrrrGGgg"/>
      <phase duration="5" state="rrrryyggrrrryygg"/>
      <phase duration="5" state="rrrrrrGGrrrrrrGG"/>
      <phase duration="5" state="rrrrrryyrrrrrryy"/>
   </tlLogic>
   <tlLogic id="c4" programID="static_program_5" type="static" offset="0">
      <phase duration="48" state="GGggrrrrGGggrrrr"/>
      <phase duration="5" state="yyggrrrryyggrrrr"/>
      <phase duration="5" state="rrGGrrrrrrGGrrrr"/>
      <phase duration="5" state="rryyrrrrrryyrrrr"/>
      <phase duration="12" state="rrrrGGggrrrrGGgg"/>
      <phase duration="5" state="rrrryyggrrrryygg"/>
      <phase duration="5" state="rrrrrrGGrrrrrrGG"/>
      <phase duration="5" state="rrrrrryyrrrrrryy"/>
   </tlLogic>
   <tlLogic id="c5" programID="static_program_5" type="static" offset="0">
      <phase duration="48" state="GGggrrrrGGggrrrr"/>
      <phase duration="5" state="yyggrrrryyggrrrr"/>
      <phase duration="5" state="rrGGrrrrrrGGrrrr"/>
      <phase duration="5" state="rryyrrrrrryyrrrr"/>
      <phase duration="12" state="rrrrGGggrrrrGGgg"/>
      <phase duration="5" state="rrrryyggrrrryygg"/>
      <phase duration="5" state="rrrrrrGGrrrrrrGG"/>
      <phase duration="5" state="rrrrrryyrrrrrryy"/>
   </tlLogic>
   <tlLogic id="c6" programID="static_program_5" type="static" offset="0">
      <phase duration="48" state="GGggrrrrGGggrrrr"/>
      <phase duration="5" state="yyggrrrryyggrrrr"/>
      <phase duration="5" state="rrGGrrrrrrGGrrrr"/>
      <phase duration="5" state="rryyrrrrrryyrrrr"/>
      <phase duration="12" state="rrrrGGggrrrrGGgg"/>
      <phase duration="5" state="rrrryyggrrrryygg"/>
      <phase duration="5" state="rrrrrrGGrrrrrrGG"/>
      <phase duration="5" state="rrrrrryyrrrrrryy"/>
   </tlLogic>
   <tlLogic id="c7" programID="static_program_5" type="static" offset="0">
      <phase duration="48" state="GGggrrrrGGggrrrr"/>
      <phase duration="5" state="yyggrrrryyggrrrr"/>
      <phase duration="5" state="rrGGrrrrrrGGrrrr"/>
      <phase duration="5" state="rryyrrrrrryyrrrr"/>
      <phase duration="12" state="rrrrGGggrrrrGGgg"/>
      <phase duration="5" state="rrrryyggrrrryygg"/>
      <phase duration="5" state="rrrrrrGGrrrrrrGG"/>
      <phase duration="5" state="rrrrrryyrrrrrryy"/>
   </tlLogic>
   <tlLogic id="c8" programID="static_program_5" type="static" offset="0">
      <phase duration="48" state="GGggrrrrGGggrrrr"/>
      <phase duration="5" state="yyggrrrryyggrrrr"/>
      <phase duration="5" state="rrGGrrrrrrGGrrrr"/>
      <phase duration="5" state="rryyrrrrrryyrrrr"/>
      <phase duration="12" state="rrrrGGggrrrrGGgg"/>
      <phase duration="5" state="rrrryyggrrrryygg"/>
      <phase duration="5" state="rrrrrrGGrrrrrrGG"/>
      <phase duration="5" state="rrrrrryyrrrrrryy"/>
   </tlLogic>
   <tlLogic id="c9" programID="static_program_5" type="static" offset="0">
      <phase duration="48" state="GGggrrrrGGggrrrr"/>
      <phase duration="5" state="yyggrrrryyggrrrr"/>
      <phase duration="5" state="rrGGrrrrrrGGrrrr"/>
      <phase duration="5" state="rryyrrrrrryyrrrr"/>
      <phase duration="12" state="rrrrGGggrrrrGGgg"/>
      <phase duration="5" state="rrrryyggrrrryygg"/>
      <phase duration="5" state="rrrrrrGGrrrrrrGG"/>
      <phase duration="5" state="rrrrrryyrrrrrryy"/>
   </tlLogic>
</additional>
