<?xml version="1.0" encoding="UTF-8"?>

<!-- generated on mié 09 feb 2022 09:26:14 CET by Eclipse SUMO netedit Version v1_1_0+0000-2147d155b1
<configuration xmlns:xsi="http://www.w3.org/2001/XMLSchema-instance" xsi:noNamespaceSchemaLocation="http://sumo.dlr.de/xsd/netconvertConfiguration.xsd">

    <input>
        <sumo-net-file value="/home/eclipse-sumo/Desktop/SmartTLC/traffic_light_controller/net-files/topology_grid_3x3/topology.net.xml"/>
    </input>

    <output>
        <output-file value="/home/eclipse-sumo/Desktop/SmartTLC/traffic_light_controller/net-files/topology_grid_3x3/topology.net.xml"/>
    </output>

    <processing>
        <geometry.max-grade.fix value="false"/>
        <offset.disable-normalization value="true"/>
        <lefthand value="false"/>
    </processing>

    <junctions>
        <no-turnarounds value="true"/>
        <junctions.corner-detail value="5"/>
        <junctions.limit-turn-speed value="5.5"/>
        <rectangular-lane-cut value="false"/>
    </junctions>

    <pedestrian>
        <walkingareas value="false"/>
    </pedestrian>

</configuration>
-->

<net version="1.1" junctionCornerDetail="5" limitTurnSpeed="5.50" xmlns:xsi="http://www.w3.org/2001/XMLSchema-instance" xsi:noNamespaceSchemaLocation="http://sumo.dlr.de/xsd/net_file.xsd">

    <location netOffset="0.00,-500.00" convBoundary="0.00,0.00,2000.00,2000.00" origBoundary="0.00,500.00,1000.00,1500.00" projParameter="!"/>

    <edge id=":c1_0" function="internal">
        <lane id=":c1_0_0" index="0" speed="6.51" length="9.03" shape="495.20,510.40 494.85,507.95 493.80,506.20 492.05,505.15 489.60,504.80"/>
    </edge>
    <edge id=":c1_1" function="internal">
        <lane id=":c1_1_0" index="0" speed="13.89" length="20.80" shape="495.20,510.40 495.20,489.60"/>
        <lane id=":c1_1_1" index="1" speed="13.89" length="20.80" shape="498.40,510.40 498.40,489.60"/>
    </edge>
    <edge id=":c1_3" function="internal">
        <lane id=":c1_3_0" index="0" speed="9.26" length="6.96" shape="498.40,510.40 499.15,505.15 500.00,503.73"/>
    </edge>
    <edge id=":c1_16" function="internal">
        <lane id=":c1_16_0" index="0" speed="9.26" length="12.40" shape="500.00,503.73 501.40,501.40 505.15,499.15 510.40,498.40"/>
    </edge>
    <edge id=":c1_4" function="internal">
        <lane id=":c1_4_0" index="0" speed="6.51" length="9.03" shape="510.40,504.80 507.95,505.15 506.20,506.20 505.15,507.95 504.80,510.40"/>
    </edge>
    <edge id=":c1_5" function="internal">
        <lane id=":c1_5_0" index="0" speed="13.89" length="20.80" shape="510.40,504.80 489.60,504.80"/>
        <lane id=":c1_5_1" index="1" speed="13.89" length="20.80" shape="510.40,501.60 489.60,501.60"/>
    </edge>
    <edge id=":c1_7" function="internal">
        <lane id=":c1_7_0" index="0" speed="9.26" length="6.96" shape="510.40,501.60 505.15,500.85 503.73,500.00"/>
    </edge>
    <edge id=":c1_17" function="internal">
        <lane id=":c1_17_0" index="0" speed="9.26" length="12.40" shape="503.73,500.00 501.40,498.60 499.15,494.85 498.40,489.60"/>
    </edge>
    <edge id=":c1_8" function="internal">
        <lane id=":c1_8_0" index="0" speed="6.51" length="9.03" shape="504.80,489.60 505.15,492.05 506.20,493.80 507.95,494.85 510.40,495.20"/>
    </edge>
    <edge id=":c1_9" function="internal">
        <lane id=":c1_9_0" index="0" speed="13.89" length="20.80" shape="504.80,489.60 504.80,510.40"/>
        <lane id=":c1_9_1" index="1" speed="13.89" length="20.80" shape="501.60,489.60 501.60,510.40"/>
    </edge>
    <edge id=":c1_11" function="internal">
        <lane id=":c1_11_0" index="0" speed="9.26" length="6.96" shape="501.60,489.60 500.85,494.85 500.00,496.27"/>
    </edge>
    <edge id=":c1_18" function="internal">
        <lane id=":c1_18_0" index="0" speed="9.26" length="12.40" shape="500.00,496.27 498.60,498.60 494.85,500.85 489.60,501.60"/>
    </edge>
    <edge id=":c1_12" function="internal">
        <lane id=":c1_12_0" index="0" speed="6.51" length="9.03" shape="489.60,495.20 492.05,494.85 493.80,493.80 494.85,492.05 495.20,489.60"/>
    </edge>
    <edge id=":c1_13" function="internal">
        <lane id=":c1_13_0" index="0" speed="13.89" length="20.80" shape="489.60,495.20 510.40,495.20"/>
        <lane id=":c1_13_1" index="1" speed="13.89" length="20.80" shape="489.60,498.40 510.40,498.40"/>
    </edge>
    <edge id=":c1_15" function="internal">
        <lane id=":c1_15_0" index="0" speed="9.26" length="6.96" shape="489.60,498.40 494.85,499.15 496.27,500.00"/>
    </edge>
    <edge id=":c1_19" function="internal">
        <lane id=":c1_19_0" index="0" speed="9.26" length="12.40" shape="496.27,500.00 498.60,501.40 500.85,505.15 501.60,510.40"/>
    </edge>
    <edge id=":c2_0" function="internal">
        <lane id=":c2_0_0" index="0" speed="6.51" length="9.03" shape="995.20,510.40 994.85,507.95 993.80,506.20 992.05,505.15 989.60,504.80"/>
    </edge>
    <edge id=":c2_1" function="internal">
        <lane id=":c2_1_0" index="0" speed="13.89" length="20.80" shape="995.20,510.40 995.20,489.60"/>
        <lane id=":c2_1_1" index="1" speed="13.89" length="20.80" shape="998.40,510.40 998.40,489.60"/>
    </edge>
    <edge id=":c2_3" function="internal">
        <lane id=":c2_3_0" index="0" speed="9.26" length="6.96" shape="998.40,510.40 999.15,505.15 1000.00,503.73"/>
    </edge>
    <edge id=":c2_16" function="internal">
        <lane id=":c2_16_0" index="0" speed="9.26" length="12.40" shape="1000.00,503.73 1001.40,501.40 1005.15,499.15 1010.40,498.40"/>
    </edge>
    <edge id=":c2_4" function="internal">
        <lane id=":c2_4_0" index="0" speed="6.51" length="9.03" shape="1010.40,504.80 1007.95,505.15 1006.20,506.20 1005.15,507.95 1004.80,510.40"/>
    </edge>
    <edge id=":c2_5" function="internal">
        <lane id=":c2_5_0" index="0" speed="13.89" length="20.80" shape="1010.40,504.80 989.60,504.80"/>
        <lane id=":c2_5_1" index="1" speed="13.89" length="20.80" shape="1010.40,501.60 989.60,501.60"/>
    </edge>
    <edge id=":c2_7" function="internal">
        <lane id=":c2_7_0" index="0" speed="9.26" length="6.96" shape="1010.40,501.60 1005.15,500.85 1003.73,500.00"/>
    </edge>
    <edge id=":c2_17" function="internal">
        <lane id=":c2_17_0" index="0" speed="9.26" length="12.40" shape="1003.73,500.00 1001.40,498.60 999.15,494.85 998.40,489.60"/>
    </edge>
    <edge id=":c2_8" function="internal">
        <lane id=":c2_8_0" index="0" speed="6.51" length="9.03" shape="1004.80,489.60 1005.15,492.05 1006.20,493.80 1007.95,494.85 1010.40,495.20"/>
    </edge>
    <edge id=":c2_9" function="internal">
        <lane id=":c2_9_0" index="0" speed="13.89" length="20.80" shape="1004.80,489.60 1004.80,510.40"/>
        <lane id=":c2_9_1" index="1" speed="13.89" length="20.80" shape="1001.60,489.60 1001.60,510.40"/>
    </edge>
    <edge id=":c2_11" function="internal">
        <lane id=":c2_11_0" index="0" speed="9.26" length="6.96" shape="1001.60,489.60 1000.85,494.85 1000.00,496.27"/>
    </edge>
    <edge id=":c2_18" function="internal">
        <lane id=":c2_18_0" index="0" speed="9.26" length="12.40" shape="1000.00,496.27 998.60,498.60 994.85,500.85 989.60,501.60"/>
    </edge>
    <edge id=":c2_12" function="internal">
        <lane id=":c2_12_0" index="0" speed="6.51" length="9.03" shape="989.60,495.20 992.05,494.85 993.80,493.80 994.85,492.05 995.20,489.60"/>
    </edge>
    <edge id=":c2_13" function="internal">
        <lane id=":c2_13_0" index="0" speed="13.89" length="20.80" shape="989.60,495.20 1010.40,495.20"/>
        <lane id=":c2_13_1" index="1" speed="13.89" length="20.80" shape="989.60,498.40 1010.40,498.40"/>
    </edge>
    <edge id=":c2_15" function="internal">
        <lane id=":c2_15_0" index="0" speed="9.26" length="6.96" shape="989.60,498.40 994.85,499.15 996.27,500.00"/>
    </edge>
    <edge id=":c2_19" function="internal">
        <lane id=":c2_19_0" index="0" speed="9.26" length="12.40" shape="996.27,500.00 998.60,501.40 1000.85,505.15 1001.60,510.40"/>
    </edge>
    <edge id=":c3_0" function="internal">
        <lane id=":c3_0_0" index="0" speed="6.51" length="9.03" shape="1495.20,510.40 1494.85,507.95 1493.80,506.20 1492.05,505.15 1489.60,504.80"/>
    </edge>
    <edge id=":c3_1" function="internal">
        <lane id=":c3_1_0" index="0" speed="13.89" length="20.80" shape="1495.20,510.40 1495.20,489.60"/>
        <lane id=":c3_1_1" index="1" speed="13.89" length="20.80" shape="1498.40,510.40 1498.40,489.60"/>
    </edge>
    <edge id=":c3_3" function="internal">
        <lane id=":c3_3_0" index="0" speed="9.26" length="6.96" shape="1498.40,510.40 1499.15,505.15 1500.00,503.73"/>
    </edge>
    <edge id=":c3_16" function="internal">
        <lane id=":c3_16_0" index="0" speed="9.26" length="12.40" shape="1500.00,503.73 1501.40,501.40 1505.15,499.15 1510.40,498.40"/>
    </edge>
    <edge id=":c3_4" function="internal">
        <lane id=":c3_4_0" index="0" speed="6.51" length="9.03" shape="1510.40,504.80 1507.95,505.15 1506.20,506.20 1505.15,507.95 1504.80,510.40"/>
    </edge>
    <edge id=":c3_5" function="internal">
        <lane id=":c3_5_0" index="0" speed="13.89" length="20.80" shape="1510.40,504.80 1489.60,504.80"/>
        <lane id=":c3_5_1" index="1" speed="13.89" length="20.80" shape="1510.40,501.60 1489.60,501.60"/>
    </edge>
    <edge id=":c3_7" function="internal">
        <lane id=":c3_7_0" index="0" speed="9.26" length="6.96" shape="1510.40,501.60 1505.15,500.85 1503.73,500.00"/>
    </edge>
    <edge id=":c3_17" function="internal">
        <lane id=":c3_17_0" index="0" speed="9.26" length="12.40" shape="1503.73,500.00 1501.40,498.60 1499.15,494.85 1498.40,489.60"/>
    </edge>
    <edge id=":c3_8" function="internal">
        <lane id=":c3_8_0" index="0" speed="6.51" length="9.03" shape="1504.80,489.60 1505.15,492.05 1506.20,493.80 1507.95,494.85 1510.40,495.20"/>
    </edge>
    <edge id=":c3_9" function="internal">
        <lane id=":c3_9_0" index="0" speed="13.89" length="20.80" shape="1504.80,489.60 1504.80,510.40"/>
        <lane id=":c3_9_1" index="1" speed="13.89" length="20.80" shape="1501.60,489.60 1501.60,510.40"/>
    </edge>
    <edge id=":c3_11" function="internal">
        <lane id=":c3_11_0" index="0" speed="9.26" length="6.96" shape="1501.60,489.60 1500.85,494.85 1500.00,496.27"/>
    </edge>
    <edge id=":c3_18" function="internal">
        <lane id=":c3_18_0" index="0" speed="9.26" length="12.40" shape="1500.00,496.27 1498.60,498.60 1494.85,500.85 1489.60,501.60"/>
    </edge>
    <edge id=":c3_12" function="internal">
        <lane id=":c3_12_0" index="0" speed="6.51" length="9.03" shape="1489.60,495.20 1492.05,494.85 1493.80,493.80 1494.85,492.05 1495.20,489.60"/>
    </edge>
    <edge id=":c3_13" function="internal">
        <lane id=":c3_13_0" index="0" speed="13.89" length="20.80" shape="1489.60,495.20 1510.40,495.20"/>
        <lane id=":c3_13_1" index="1" speed="13.89" length="20.80" shape="1489.60,498.40 1510.40,498.40"/>
    </edge>
    <edge id=":c3_15" function="internal">
        <lane id=":c3_15_0" index="0" speed="9.26" length="6.96" shape="1489.60,498.40 1494.85,499.15 1496.27,500.00"/>
    </edge>
    <edge id=":c3_19" function="internal">
        <lane id=":c3_19_0" index="0" speed="9.26" length="12.40" shape="1496.27,500.00 1498.60,501.40 1500.85,505.15 1501.60,510.40"/>
    </edge>
    <edge id=":c4_0" function="internal">
        <lane id=":c4_0_0" index="0" speed="6.51" length="9.03" shape="495.20,1010.40 494.85,1007.95 493.80,1006.20 492.05,1005.15 489.60,1004.80"/>
    </edge>
    <edge id=":c4_1" function="internal">
        <lane id=":c4_1_0" index="0" speed="13.89" length="20.80" shape="495.20,1010.40 495.20,989.60"/>
        <lane id=":c4_1_1" index="1" speed="13.89" length="20.80" shape="498.40,1010.40 498.40,989.60"/>
    </edge>
    <edge id=":c4_3" function="internal">
        <lane id=":c4_3_0" index="0" speed="9.26" length="6.96" shape="498.40,1010.40 499.15,1005.15 500.00,1003.73"/>
    </edge>
    <edge id=":c4_16" function="internal">
        <lane id=":c4_16_0" index="0" speed="9.26" length="12.40" shape="500.00,1003.73 501.40,1001.40 505.15,999.15 510.40,998.40"/>
    </edge>
    <edge id=":c4_4" function="internal">
        <lane id=":c4_4_0" index="0" speed="6.51" length="9.03" shape="510.40,1004.80 507.95,1005.15 506.20,1006.20 505.15,1007.95 504.80,1010.40"/>
    </edge>
    <edge id=":c4_5" function="internal">
        <lane id=":c4_5_0" index="0" speed="13.89" length="20.80" shape="510.40,1004.80 489.60,1004.80"/>
        <lane id=":c4_5_1" index="1" speed="13.89" length="20.80" shape="510.40,1001.60 489.60,1001.60"/>
    </edge>
    <edge id=":c4_7" function="internal">
        <lane id=":c4_7_0" index="0" speed="9.26" length="6.96" shape="510.40,1001.60 505.15,1000.85 503.73,1000.00"/>
    </edge>
    <edge id=":c4_17" function="internal">
        <lane id=":c4_17_0" index="0" speed="9.26" length="12.40" shape="503.73,1000.00 501.40,998.60 499.15,994.85 498.40,989.60"/>
    </edge>
    <edge id=":c4_8" function="internal">
        <lane id=":c4_8_0" index="0" speed="6.51" length="9.03" shape="504.80,989.60 505.15,992.05 506.20,993.80 507.95,994.85 510.40,995.20"/>
    </edge>
    <edge id=":c4_9" function="internal">
        <lane id=":c4_9_0" index="0" speed="13.89" length="20.80" shape="504.80,989.60 504.80,1010.40"/>
        <lane id=":c4_9_1" index="1" speed="13.89" length="20.80" shape="501.60,989.60 501.60,1010.40"/>
    </edge>
    <edge id=":c4_11" function="internal">
        <lane id=":c4_11_0" index="0" speed="9.26" length="6.96" shape="501.60,989.60 500.85,994.85 500.00,996.27"/>
    </edge>
    <edge id=":c4_18" function="internal">
        <lane id=":c4_18_0" index="0" speed="9.26" length="12.40" shape="500.00,996.27 498.60,998.60 494.85,1000.85 489.60,1001.60"/>
    </edge>
    <edge id=":c4_12" function="internal">
        <lane id=":c4_12_0" index="0" speed="6.51" length="9.03" shape="489.60,995.20 492.05,994.85 493.80,993.80 494.85,992.05 495.20,989.60"/>
    </edge>
    <edge id=":c4_13" function="internal">
        <lane id=":c4_13_0" index="0" speed="13.89" length="20.80" shape="489.60,995.20 510.40,995.20"/>
        <lane id=":c4_13_1" index="1" speed="13.89" length="20.80" shape="489.60,998.40 510.40,998.40"/>
    </edge>
    <edge id=":c4_15" function="internal">
        <lane id=":c4_15_0" index="0" speed="9.26" length="6.96" shape="489.60,998.40 494.85,999.15 496.27,1000.00"/>
    </edge>
    <edge id=":c4_19" function="internal">
        <lane id=":c4_19_0" index="0" speed="9.26" length="12.40" shape="496.27,1000.00 498.60,1001.40 500.85,1005.15 501.60,1010.40"/>
    </edge>
    <edge id=":c5_0" function="internal">
        <lane id=":c5_0_0" index="0" speed="6.51" length="9.03" shape="995.20,1010.40 994.85,1007.95 993.80,1006.20 992.05,1005.15 989.60,1004.80"/>
    </edge>
    <edge id=":c5_1" function="internal">
        <lane id=":c5_1_0" index="0" speed="13.89" length="20.80" shape="995.20,1010.40 995.20,989.60"/>
        <lane id=":c5_1_1" index="1" speed="13.89" length="20.80" shape="998.40,1010.40 998.40,989.60"/>
    </edge>
    <edge id=":c5_3" function="internal">
        <lane id=":c5_3_0" index="0" speed="9.26" length="6.96" shape="998.40,1010.40 999.15,1005.15 1000.00,1003.73"/>
    </edge>
    <edge id=":c5_16" function="internal">
        <lane id=":c5_16_0" index="0" speed="9.26" length="12.40" shape="1000.00,1003.73 1001.40,1001.40 1005.15,999.15 1010.40,998.40"/>
    </edge>
    <edge id=":c5_4" function="internal">
        <lane id=":c5_4_0" index="0" speed="6.51" length="9.03" shape="1010.40,1004.80 1007.95,1005.15 1006.20,1006.20 1005.15,1007.95 1004.80,1010.40"/>
    </edge>
    <edge id=":c5_5" function="internal">
        <lane id=":c5_5_0" index="0" speed="13.89" length="20.80" shape="1010.40,1004.80 989.60,1004.80"/>
        <lane id=":c5_5_1" index="1" speed="13.89" length="20.80" shape="1010.40,1001.60 989.60,1001.60"/>
    </edge>
    <edge id=":c5_7" function="internal">
        <lane id=":c5_7_0" index="0" speed="9.26" length="6.96" shape="1010.40,1001.60 1005.15,1000.85 1003.73,1000.00"/>
    </edge>
    <edge id=":c5_17" function="internal">
        <lane id=":c5_17_0" index="0" speed="9.26" length="12.40" shape="1003.73,1000.00 1001.40,998.60 999.15,994.85 998.40,989.60"/>
    </edge>
    <edge id=":c5_8" function="internal">
        <lane id=":c5_8_0" index="0" speed="6.51" length="9.03" shape="1004.80,989.60 1005.15,992.05 1006.20,993.80 1007.95,994.85 1010.40,995.20"/>
    </edge>
    <edge id=":c5_9" function="internal">
        <lane id=":c5_9_0" index="0" speed="13.89" length="20.80" shape="1004.80,989.60 1004.80,1010.40"/>
        <lane id=":c5_9_1" index="1" speed="13.89" length="20.80" shape="1001.60,989.60 1001.60,1010.40"/>
    </edge>
    <edge id=":c5_11" function="internal">
        <lane id=":c5_11_0" index="0" speed="9.26" length="6.96" shape="1001.60,989.60 1000.85,994.85 1000.00,996.27"/>
    </edge>
    <edge id=":c5_18" function="internal">
        <lane id=":c5_18_0" index="0" speed="9.26" length="12.40" shape="1000.00,996.27 998.60,998.60 994.85,1000.85 989.60,1001.60"/>
    </edge>
    <edge id=":c5_12" function="internal">
        <lane id=":c5_12_0" index="0" speed="6.51" length="9.03" shape="989.60,995.20 992.05,994.85 993.80,993.80 994.85,992.05 995.20,989.60"/>
    </edge>
    <edge id=":c5_13" function="internal">
        <lane id=":c5_13_0" index="0" speed="13.89" length="20.80" shape="989.60,995.20 1010.40,995.20"/>
        <lane id=":c5_13_1" index="1" speed="13.89" length="20.80" shape="989.60,998.40 1010.40,998.40"/>
    </edge>
    <edge id=":c5_15" function="internal">
        <lane id=":c5_15_0" index="0" speed="9.26" length="6.96" shape="989.60,998.40 994.85,999.15 996.27,1000.00"/>
    </edge>
    <edge id=":c5_19" function="internal">
        <lane id=":c5_19_0" index="0" speed="9.26" length="12.40" shape="996.27,1000.00 998.60,1001.40 1000.85,1005.15 1001.60,1010.40"/>
    </edge>
    <edge id=":c6_0" function="internal">
        <lane id=":c6_0_0" index="0" speed="6.51" length="9.03" shape="1495.20,1010.40 1494.85,1007.95 1493.80,1006.20 1492.05,1005.15 1489.60,1004.80"/>
    </edge>
    <edge id=":c6_1" function="internal">
        <lane id=":c6_1_0" index="0" speed="13.89" length="20.80" shape="1495.20,1010.40 1495.20,989.60"/>
        <lane id=":c6_1_1" index="1" speed="13.89" length="20.80" shape="1498.40,1010.40 1498.40,989.60"/>
    </edge>
    <edge id=":c6_3" function="internal">
        <lane id=":c6_3_0" index="0" speed="9.26" length="6.96" shape="1498.40,1010.40 1499.15,1005.15 1500.00,1003.73"/>
    </edge>
    <edge id=":c6_16" function="internal">
        <lane id=":c6_16_0" index="0" speed="9.26" length="12.40" shape="1500.00,1003.73 1501.40,1001.40 1505.15,999.15 1510.40,998.40"/>
    </edge>
    <edge id=":c6_4" function="internal">
        <lane id=":c6_4_0" index="0" speed="6.51" length="9.03" shape="1510.40,1004.80 1507.95,1005.15 1506.20,1006.20 1505.15,1007.95 1504.80,1010.40"/>
    </edge>
    <edge id=":c6_5" function="internal">
        <lane id=":c6_5_0" index="0" speed="13.89" length="20.80" shape="1510.40,1004.80 1489.60,1004.80"/>
        <lane id=":c6_5_1" index="1" speed="13.89" length="20.80" shape="1510.40,1001.60 1489.60,1001.60"/>
    </edge>
    <edge id=":c6_7" function="internal">
        <lane id=":c6_7_0" index="0" speed="9.26" length="6.96" shape="1510.40,1001.60 1505.15,1000.85 1503.73,1000.00"/>
    </edge>
    <edge id=":c6_17" function="internal">
        <lane id=":c6_17_0" index="0" speed="9.26" length="12.40" shape="1503.73,1000.00 1501.40,998.60 1499.15,994.85 1498.40,989.60"/>
    </edge>
    <edge id=":c6_8" function="internal">
        <lane id=":c6_8_0" index="0" speed="6.51" length="9.03" shape="1504.80,989.60 1505.15,992.05 1506.20,993.80 1507.95,994.85 1510.40,995.20"/>
    </edge>
    <edge id=":c6_9" function="internal">
        <lane id=":c6_9_0" index="0" speed="13.89" length="20.80" shape="1504.80,989.60 1504.80,1010.40"/>
        <lane id=":c6_9_1" index="1" speed="13.89" length="20.80" shape="1501.60,989.60 1501.60,1010.40"/>
    </edge>
    <edge id=":c6_11" function="internal">
        <lane id=":c6_11_0" index="0" speed="9.26" length="6.96" shape="1501.60,989.60 1500.85,994.85 1500.00,996.27"/>
    </edge>
    <edge id=":c6_18" function="internal">
        <lane id=":c6_18_0" index="0" speed="9.26" length="12.40" shape="1500.00,996.27 1498.60,998.60 1494.85,1000.85 1489.60,1001.60"/>
    </edge>
    <edge id=":c6_12" function="internal">
        <lane id=":c6_12_0" index="0" speed="6.51" length="9.03" shape="1489.60,995.20 1492.05,994.85 1493.80,993.80 1494.85,992.05 1495.20,989.60"/>
    </edge>
    <edge id=":c6_13" function="internal">
        <lane id=":c6_13_0" index="0" speed="13.89" length="20.80" shape="1489.60,995.20 1510.40,995.20"/>
        <lane id=":c6_13_1" index="1" speed="13.89" length="20.80" shape="1489.60,998.40 1510.40,998.40"/>
    </edge>
    <edge id=":c6_15" function="internal">
        <lane id=":c6_15_0" index="0" speed="9.26" length="6.96" shape="1489.60,998.40 1494.85,999.15 1496.27,1000.00"/>
    </edge>
    <edge id=":c6_19" function="internal">
        <lane id=":c6_19_0" index="0" speed="9.26" length="12.40" shape="1496.27,1000.00 1498.60,1001.40 1500.85,1005.15 1501.60,1010.40"/>
    </edge>
    <edge id=":c7_0" function="internal">
        <lane id=":c7_0_0" index="0" speed="6.51" length="9.03" shape="495.20,1510.40 494.85,1507.95 493.80,1506.20 492.05,1505.15 489.60,1504.80"/>
    </edge>
    <edge id=":c7_1" function="internal">
        <lane id=":c7_1_0" index="0" speed="13.89" length="20.80" shape="495.20,1510.40 495.20,1489.60"/>
        <lane id=":c7_1_1" index="1" speed="13.89" length="20.80" shape="498.40,1510.40 498.40,1489.60"/>
    </edge>
    <edge id=":c7_3" function="internal">
        <lane id=":c7_3_0" index="0" speed="9.26" length="6.96" shape="498.40,1510.40 499.15,1505.15 500.00,1503.73"/>
    </edge>
    <edge id=":c7_16" function="internal">
        <lane id=":c7_16_0" index="0" speed="9.26" length="12.40" shape="500.00,1503.73 501.40,1501.40 505.15,1499.15 510.40,1498.40"/>
    </edge>
    <edge id=":c7_4" function="internal">
        <lane id=":c7_4_0" index="0" speed="6.51" length="9.03" shape="510.40,1504.80 507.95,1505.15 506.20,1506.20 505.15,1507.95 504.80,1510.40"/>
    </edge>
    <edge id=":c7_5" function="internal">
        <lane id=":c7_5_0" index="0" speed="13.89" length="20.80" shape="510.40,1504.80 489.60,1504.80"/>
        <lane id=":c7_5_1" index="1" speed="13.89" length="20.80" shape="510.40,1501.60 489.60,1501.60"/>
    </edge>
    <edge id=":c7_7" function="internal">
        <lane id=":c7_7_0" index="0" speed="9.26" length="6.96" shape="510.40,1501.60 505.15,1500.85 503.73,1500.00"/>
    </edge>
    <edge id=":c7_17" function="internal">
        <lane id=":c7_17_0" index="0" speed="9.26" length="12.40" shape="503.73,1500.00 501.40,1498.60 499.15,1494.85 498.40,1489.60"/>
    </edge>
    <edge id=":c7_8" function="internal">
        <lane id=":c7_8_0" index="0" speed="6.51" length="9.03" shape="504.80,1489.60 505.15,1492.05 506.20,1493.80 507.95,1494.85 510.40,1495.20"/>
    </edge>
    <edge id=":c7_9" function="internal">
        <lane id=":c7_9_0" index="0" speed="13.89" length="20.80" shape="504.80,1489.60 504.80,1510.40"/>
        <lane id=":c7_9_1" index="1" speed="13.89" length="20.80" shape="501.60,1489.60 501.60,1510.40"/>
    </edge>
    <edge id=":c7_11" function="internal">
        <lane id=":c7_11_0" index="0" speed="9.26" length="6.96" shape="501.60,1489.60 500.85,1494.85 500.00,1496.27"/>
    </edge>
    <edge id=":c7_18" function="internal">
        <lane id=":c7_18_0" index="0" speed="9.26" length="12.40" shape="500.00,1496.27 498.60,1498.60 494.85,1500.85 489.60,1501.60"/>
    </edge>
    <edge id=":c7_12" function="internal">
        <lane id=":c7_12_0" index="0" speed="6.51" length="9.03" shape="489.60,1495.20 492.05,1494.85 493.80,1493.80 494.85,1492.05 495.20,1489.60"/>
    </edge>
    <edge id=":c7_13" function="internal">
        <lane id=":c7_13_0" index="0" speed="13.89" length="20.80" shape="489.60,1495.20 510.40,1495.20"/>
        <lane id=":c7_13_1" index="1" speed="13.89" length="20.80" shape="489.60,1498.40 510.40,1498.40"/>
    </edge>
    <edge id=":c7_15" function="internal">
        <lane id=":c7_15_0" index="0" speed="9.26" length="6.96" shape="489.60,1498.40 494.85,1499.15 496.27,1500.00"/>
    </edge>
    <edge id=":c7_19" function="internal">
        <lane id=":c7_19_0" index="0" speed="9.26" length="12.40" shape="496.27,1500.00 498.60,1501.40 500.85,1505.15 501.60,1510.40"/>
    </edge>
    <edge id=":c8_0" function="internal">
        <lane id=":c8_0_0" index="0" speed="6.51" length="9.03" shape="995.20,1510.40 994.85,1507.95 993.80,1506.20 992.05,1505.15 989.60,1504.80"/>
    </edge>
    <edge id=":c8_1" function="internal">
        <lane id=":c8_1_0" index="0" speed="13.89" length="20.80" shape="995.20,1510.40 995.20,1489.60"/>
        <lane id=":c8_1_1" index="1" speed="13.89" length="20.80" shape="998.40,1510.40 998.40,1489.60"/>
    </edge>
    <edge id=":c8_3" function="internal">
        <lane id=":c8_3_0" index="0" speed="9.26" length="6.96" shape="998.40,1510.40 999.15,1505.15 1000.00,1503.73"/>
    </edge>
    <edge id=":c8_16" function="internal">
        <lane id=":c8_16_0" index="0" speed="9.26" length="12.40" shape="1000.00,1503.73 1001.40,1501.40 1005.15,1499.15 1010.40,1498.40"/>
    </edge>
    <edge id=":c8_4" function="internal">
        <lane id=":c8_4_0" index="0" speed="6.51" length="9.03" shape="1010.40,1504.80 1007.95,1505.15 1006.20,1506.20 1005.15,1507.95 1004.80,1510.40"/>
    </edge>
    <edge id=":c8_5" function="internal">
        <lane id=":c8_5_0" index="0" speed="13.89" length="20.80" shape="1010.40,1504.80 989.60,1504.80"/>
        <lane id=":c8_5_1" index="1" speed="13.89" length="20.80" shape="1010.40,1501.60 989.60,1501.60"/>
    </edge>
    <edge id=":c8_7" function="internal">
        <lane id=":c8_7_0" index="0" speed="9.26" length="6.96" shape="1010.40,1501.60 1005.15,1500.85 1003.73,1500.00"/>
    </edge>
    <edge id=":c8_17" function="internal">
        <lane id=":c8_17_0" index="0" speed="9.26" length="12.40" shape="1003.73,1500.00 1001.40,1498.60 999.15,1494.85 998.40,1489.60"/>
    </edge>
    <edge id=":c8_8" function="internal">
        <lane id=":c8_8_0" index="0" speed="6.51" length="9.03" shape="1004.80,1489.60 1005.15,1492.05 1006.20,1493.80 1007.95,1494.85 1010.40,1495.20"/>
    </edge>
    <edge id=":c8_9" function="internal">
        <lane id=":c8_9_0" index="0" speed="13.89" length="20.80" shape="1004.80,1489.60 1004.80,1510.40"/>
        <lane id=":c8_9_1" index="1" speed="13.89" length="20.80" shape="1001.60,1489.60 1001.60,1510.40"/>
    </edge>
    <edge id=":c8_11" function="internal">
        <lane id=":c8_11_0" index="0" speed="9.26" length="6.96" shape="1001.60,1489.60 1000.85,1494.85 1000.00,1496.27"/>
    </edge>
    <edge id=":c8_18" function="internal">
        <lane id=":c8_18_0" index="0" speed="9.26" length="12.40" shape="1000.00,1496.27 998.60,1498.60 994.85,1500.85 989.60,1501.60"/>
    </edge>
    <edge id=":c8_12" function="internal">
        <lane id=":c8_12_0" index="0" speed="6.51" length="9.03" shape="989.60,1495.20 992.05,1494.85 993.80,1493.80 994.85,1492.05 995.20,1489.60"/>
    </edge>
    <edge id=":c8_13" function="internal">
        <lane id=":c8_13_0" index="0" speed="13.89" length="20.80" shape="989.60,1495.20 1010.40,1495.20"/>
        <lane id=":c8_13_1" index="1" speed="13.89" length="20.80" shape="989.60,1498.40 1010.40,1498.40"/>
    </edge>
    <edge id=":c8_15" function="internal">
        <lane id=":c8_15_0" index="0" speed="9.26" length="6.96" shape="989.60,1498.40 994.85,1499.15 996.27,1500.00"/>
    </edge>
    <edge id=":c8_19" function="internal">
        <lane id=":c8_19_0" index="0" speed="9.26" length="12.40" shape="996.27,1500.00 998.60,1501.40 1000.85,1505.15 1001.60,1510.40"/>
    </edge>
    <edge id=":c9_0" function="internal">
        <lane id=":c9_0_0" index="0" speed="6.51" length="9.03" shape="1495.20,1510.40 1494.85,1507.95 1493.80,1506.20 1492.05,1505.15 1489.60,1504.80"/>
    </edge>
    <edge id=":c9_1" function="internal">
        <lane id=":c9_1_0" index="0" speed="13.89" length="20.80" shape="1495.20,1510.40 1495.20,1489.60"/>
        <lane id=":c9_1_1" index="1" speed="13.89" length="20.80" shape="1498.40,1510.40 1498.40,1489.60"/>
    </edge>
    <edge id=":c9_3" function="internal">
        <lane id=":c9_3_0" index="0" speed="9.26" length="6.96" shape="1498.40,1510.40 1499.15,1505.15 1500.00,1503.73"/>
    </edge>
    <edge id=":c9_16" function="internal">
        <lane id=":c9_16_0" index="0" speed="9.26" length="12.40" shape="1500.00,1503.73 1501.40,1501.40 1505.15,1499.15 1510.40,1498.40"/>
    </edge>
    <edge id=":c9_4" function="internal">
        <lane id=":c9_4_0" index="0" speed="6.51" length="9.03" shape="1510.40,1504.80 1507.95,1505.15 1506.20,1506.20 1505.15,1507.95 1504.80,1510.40"/>
    </edge>
    <edge id=":c9_5" function="internal">
        <lane id=":c9_5_0" index="0" speed="13.89" length="20.80" shape="1510.40,1504.80 1489.60,1504.80"/>
        <lane id=":c9_5_1" index="1" speed="13.89" length="20.80" shape="1510.40,1501.60 1489.60,1501.60"/>
    </edge>
    <edge id=":c9_7" function="internal">
        <lane id=":c9_7_0" index="0" speed="9.26" length="6.96" shape="1510.40,1501.60 1505.15,1500.85 1503.73,1500.00"/>
    </edge>
    <edge id=":c9_17" function="internal">
        <lane id=":c9_17_0" index="0" speed="9.26" length="12.40" shape="1503.73,1500.00 1501.40,1498.60 1499.15,1494.85 1498.40,1489.60"/>
    </edge>
    <edge id=":c9_8" function="internal">