<additional>
  <!-- Manually set -->
  <!-- The ID indicates the direction -->

  <!-- North oriented detectors -->
  <inductionLoop id="north_s1_c1_loop_0" lane="s1_c1_0" pos="450" freq="1800" file="out.xml"/>
  <inductionLoop id="north_s1_c1_loop_1" lane="s1_c1_1" pos="450" freq="1800" file="out.xml"/>
  <inductionLoop id="north_s2_c2_loop_0" lane="s2_c2_0" pos="450" freq="1800" file="out.xml"/>
  <inductionLoop id="north_s2_c2_loop_1" lane="s2_c2_1" pos="450" freq="1800" file="out.xml"/>
  <inductionLoop id="north_s3_c3_loop_0" lane="s3_c3_0" pos="450" freq="1800" file="out.xml"/>
  <inductionLoop id="north_s3_c3_loop_1" lane="s3_c3_1" pos="450" freq="1800" file="out.xml"/>
  <inductionLoop id="north_c1_c4_loop_0" lane="c1_c4_0" pos="450" freq="1800" file="out.xml"/>
  <inductionLoop id="north_c1_c4_loop_1" lane="c1_c4_1" pos="450" freq="1800" file="out.xml"/>
  <inductionLoop id="north_c2_c5_loop_0" lane="c2_c5_0" pos="450" freq="1800" file="out.xml"/>
  <inductionLoop id="north_c2_c5_loop_1" lane="c2_c5_1" pos="450" freq="1800" file="out.xml"/>
  <inductionLoop id="north_c3_c6_loop_0" lane="c3_c6_0" pos="450" freq="1800" file="out.xml"/>
  <inductionLoop id="north_c3_c6_loop_1" lane="c3_c6_1" pos="450" freq="1800" file="out.xml"/>
  <inductionLoop id="north_c4_c7_loop_0" lane="c4_c7_0" pos="450" freq="1800" file="out.xml"/>
  <inductionLoop id="north_c4_c7_loop_1" lane="c4_c7_1" pos="450" freq="1800" file="out.xml"/>
  <inductionLoop id="north_c5_c8_loop_0" lane="c5_c8_0" pos="450" freq="1800" file="out.xml"/>
  <inductionLoop id="north_c5_c8_loop_1" lane="c5_c8_1" pos="450" freq="1800" file="out.xml"/>
  <inductionLoop id="north_c6_c9_loop_0" lane="c6_c9_0" pos="450" freq="1800" file="out.xml"/>
  <inductionLoop id="north_c6_c9_loop_1" lane="c6_c9_1" pos="450" freq="1800" file="out.xml"/>

  <!-- East oriented detectors -->
  <inductionLoop id="east_w1_c1_loop_0" lane="w1_c1_0" pos="450" freq="1800" file="out.xml"/>
  <inductionLoop id="east_w1_c1_loop_1" lane="w1_c1_1" pos="450" freq="1800" file="out.xml"/>
  <inductionLoop id="east_w2_c4_loop_0" lane="w2_c4_0" pos="450" freq="1800" file="out.xml"/>
  <inductionLoop id="east_w2_c4_loop_1" lane="w2_c4_1" pos="450" freq="1800" file="out.xml"/>
  <inductionLoop id="east_w3_c7_loop_0" lane="w3_c7_0" pos="450" freq="1800" file="out.xml"/>
  <inductionLoop id="east_w3_c7_loop_1" lane="w3_c7_1" pos="450" freq="1800" file="out.xml"/>
  <inductionLoop id="east_c1_c2_loop_0" lane="c1_c2_0" pos="450" freq="1800" file="out.xml"/>
  <inductionLoop id="east_c1_c2_loop_1" lane="c1_c2_1" pos="450" freq="1800" file="out.xml"/>
  <inductionLoop id="east_c2_c3_loop_0" lane="c2_c3_0" pos="450" freq="1800" file="out.xml"/>
  <inductionLoop id="east_c2_c3_loop_1" lane="c2_c3_1" pos="450" freq="1800" file="out.xml"/>
  <inductionLoop id="east_c4_c5_loop_0" lane="c4_c5_0" pos="450" freq="1800" file="out.xml"/>
  <inductionLoop id="east_c4_c5_loop_1" lane="c4_c5_1" pos="450" freq="1800" file="out.xml"/>
  <inductionLoop id="east_c5_c6_loop_0" lane="c5_c6_0" pos="450" freq="1800" file="out.xml"/>
  <inductionLoop id="east_c5_c6_loop_1" lane="c5_c6_1" pos="450" freq="1800" file="out.xml"/>
  <inductionLoop id="east_c7_c8_loop_0" lane="c7_c8_0" pos="450" freq="1800" file="out.xml"/>
  <inductionLoop id="east_c7_c8_loop_1" lane="c7_c8_1" pos="450" freq="1800" file="out.xml"/>
  <inductionLoop id="east_c8_c9_loop_0" lane="c8_c9_0" pos="450" freq="1800" file="out.xml"/>
  <inductionLoop id="east_c8_c9_loop_1" lane="c8_c9_1" pos="450" freq="1800" file="out.xml"/>

  <!-- South oriented detectors -->
  <inductionLoop id="south_n1_c7_loop_0" lane="n1_c7_0" pos="450" freq="1800" file="out.xml"/>
  <inductionLoop id="south_n1_c7_loop_1" lane="n1_c7_1" pos="450" freq="1800" file="out.xml"/>
  <inductionLoop id="south_n2_c8_loop_0" lane="n2_c8_0" pos="450" freq="1800" file="out.xml"/>
  <inductionLoop id="south_n2_c8_loop_1" lane="n2_c8_1" pos="450" freq="1800" file="out.xml"/>
  <inductionLoop id="south_n3_c9_loop_0" lane="n3_c9_0" pos="450" freq="1800" file="out.xml"/>
  <inductionLoop id="south_n3_c9_loop_1" lane="n3_c9_1" pos="450" freq="1800" file="out.xml"/>
  <inductionLoop id="south_c7_c4_loop_0" lane="c7_c4_0" pos="450" freq="1800" file="out.xml"/>
  <inductionLoop id="south_c7_c4_loop_1" lane="c7_c4_1" pos="450" freq="1800" file="out.xml"/>
  <inductionLoop id="south_c4_c1_loop_0" lane="c4_c1_0" pos="450" freq="1800" file="out.xml"/>
  <inductionLoop id="south_c4_c1_loop_1" lane="c4_c1_1" pos="450" freq="1800" file="out.xml"/>
  <inductionLoop id="south_c8_c5_loop_0" lane="c8_c5_0" pos="450" freq="1800" file="out.xml"/>
  <inductionLoop id="south_c8_c5_loop_1" lane="c8_c5_1" pos="450" freq="1800" file="out.xml"/>
  <inductionLoop id="south_c5_c2_loop_0" lane="c5_c2_0" pos="450" freq="1800" file="out.xml"/>
  <inductionLoop id="south_c5_c2_loop_1" lane="c5_c2_1" pos="450" freq="1800" file="out.xml"/>
  <inductionLoop id="south_c9_c6_loop_0" lane="c9_c6_0" pos="450" freq="1800" file="out.xml"/>
  <inductionLoop id="south_c9_c6_loop_1" lane="c9_c6_1" pos="450" freq="1800" file="out.xml"/>
  <inductionLoop id="south_c6_c3_loop_0" lane="c6_c3_0" pos="450" freq="1800" file="out.xml"/>
  <inductionLoop id="south_c6_c3_loop_1" lane="c6_c3_1" pos="450" freq="1800" file="out.xml"/>

    <!-- West oriented detectors -->
  <inductionLoop id="west_e1_c3_loop_0" lane="e1_c3_0" pos="450" freq="1800" file="out.xml"/>
  <inductionLoop id="west_e1_c3_loop_1" lane="e1_c3_1" pos="450" freq="1800" file="out.xml"/>
  <inductionLoop id="west_e2_c6_loop_0" lane="e2_c6_0" pos="450" freq="1800" file="out.xml"/>
  <inductionLoop id="west_e2_c6_loop_1" lane="e2_c6_1" pos="450" freq="1800" file="out.xml"/>
  <inductionLoop id="west_e3_c9_loop_0" lane="e3_c9_0" pos="450" freq="1800" file="out.xml"/>
  <inductionLoop id="west_e3_c9_loop_1" lane="e3_c9_1" pos="450" freq="1800" file="out.xml"/>
  <inductionLoop id="west_c3_c2_loop_0" lane="c3_c2_0" pos="450" freq="1800" file="out.xml"/>
  <inductionLoop id="west_c3_c2_loop_1" lane="c3_c2_1" pos="450" freq="1800" file="out.xml"/>
  <inductionLoop id="west_c2_c1_loop_0" lane="c2_c1_0" pos="450" freq="1800" file="out.xml"/>
  <inductionLoop id="west_c2_c1_loop_1" lane="c2_c1_1" pos="450" freq="1800" file="out.xml"/>
  <inductionLoop id="west_c6_c5_loop_0" lane="c6_c5_0" pos="450" freq="1800" file="out.xml"/>
  <inductionLoop id="west_c6_c5_loop_1" lane="c6_c5_1" pos="450" freq="1800" file="out.xml"/>
  <inductionLoop id="west_c5_c4_loop_0" lane="c5_c4_0" pos="450" freq="1800" file="out.xml"/>
  <inductionLoop id="west_c5_c4_loop_1" lane="c5_c4_1" pos="450" freq="1800" file="out.xml"/>
  <inductionLoop id="west_c9_c8_loop_0" lane="c9_c8_0" pos="450" freq="1800" file="out.xml"/>
  <inductionLoop id="west_c9_c8_loop_1" lane="c9_c8_1" pos="450" freq="1800" file="out.xml"/>
  <inductionLoop id="west_c8_c7_loop_0" lane="c8_c7_0" pos="450" freq="1800" file="out.xml"/>
  <inductionLoop id="west_c8_c7_loop_1" lane="c8_c7_1" pos="450" freq="1800" file="out.xml"/>

</additional>