<?xml version="1.0" encoding="UTF-8"?>

<!-- generated on Tue Oct  5 10:17:48 2021 by Eclipse SUMO netconvert Version v1_1_0+0000-2147d155b1
<configuration xmlns:xsi="http://www.w3.org/2001/XMLSchema-instance" xsi:noNamespaceSchemaLocation="http://sumo.dlr.de/xsd/netconvertConfiguration.xsd">

    <input>
        <node-files value="plain.nod.xml"/>
        <edge-files value="plain.edg.xml"/>
        <connection-files value="plain.con.xml"/>
        <tllogic-files value="plain.tll.xml"/>
    </input>

    <output>
        <output-file value="updated.net.xml"/>
    </output>

    <tls_building>
        <tls.default-type value="actuated"/>
    </tls_building>

    <report>
        <ignore-errors.edge-type value="true"/>
    </report>

</configuration>
-->

<net version="1.1" junctionCornerDetail="5" limitTurnSpeed="5.50" xmlns:xsi="http://www.w3.org/2001/XMLSchema-instance" xsi:noNamespaceSchemaLocation="http://sumo.dlr.de/xsd/net_file.xsd">

    <location netOffset="0.00,-500.00" convBoundary="0.00,0.00,1000.00,1000.00" origBoundary="0.00,500.00,1000.00,1500.00" projParameter="!"/>

    <edge id=":c1_0" function="internal">
        <lane id=":c1_0_0" index="0" speed="6.51" length="9.03" shape="495.20,510.40 494.85,507.95 493.80,506.20 492.05,505.15 489.60,504.80"/>
    </edge>
    <edge id=":c1_1" function="internal">
        <lane id=":c1_1_0" index="0" speed="8.00" length="14.19" shape="498.40,510.40 497.85,506.55 496.20,503.80 493.45,502.15 489.60,501.60"/>
    </edge>
    <edge id=":c1_2" function="internal">
        <lane id=":c1_2_0" index="0" speed="13.89" length="20.80" shape="498.40,510.40 498.40,489.60"/>
    </edge>
    <edge id=":c1_3" function="internal">
        <lane id=":c1_3_0" index="0" speed="9.26" length="6.96" shape="498.40,510.40 499.15,505.15 500.00,503.73"/>
    </edge>
    <edge id=":c1_16" function="internal">
        <lane id=":c1_16_0" index="0" speed="9.26" length="12.40" shape="500.00,503.73 501.40,501.40 505.15,499.15 510.40,498.40"/>
    </edge>
    <edge id=":c1_4" function="internal">
        <lane id=":c1_4_0" index="0" speed="6.51" length="9.03" shape="510.40,504.80 507.95,505.15 506.20,506.20 505.15,507.95 504.80,510.40"/>
    </edge>
    <edge id=":c1_5" function="internal">
        <lane id=":c1_5_0" index="0" speed="8.00" length="14.19" shape="510.40,501.60 506.55,502.15 503.80,503.80 502.15,506.55 501.60,510.40"/>
    </edge>
    <edge id=":c1_6" function="internal">
        <lane id=":c1_6_0" index="0" speed="13.89" length="20.80" shape="510.40,501.60 489.60,501.60"/>
    </edge>
    <edge id=":c1_7" function="internal">
        <lane id=":c1_7_0" index="0" speed="9.26" length="6.96" shape="510.40,501.60 505.15,500.85 503.73,500.00"/>
    </edge>
    <edge id=":c1_17" function="internal">
        <lane id=":c1_17_0" index="0" speed="9.26" length="12.40" shape="503.73,500.00 501.40,498.60 499.15,494.85 498.40,489.60"/>
    </edge>
    <edge id=":c1_8" function="internal">
        <lane id=":c1_8_0" index="0" speed="6.51" length="9.03" shape="504.80,489.60 505.15,492.05 506.20,493.80 507.95,494.85 510.40,495.20"/>
    </edge>
    <edge id=":c1_9" function="internal">
        <lane id=":c1_9_0" index="0" speed="8.00" length="14.19" shape="501.60,489.60 502.15,493.45 503.80,496.20 506.55,497.85 510.40,498.40"/>
    </edge>
    <edge id=":c1_10" function="internal">
        <lane id=":c1_10_0" index="0" speed="13.89" length="20.80" shape="501.60,489.60 501.60,510.40"/>
    </edge>
    <edge id=":c1_11" function="internal">
        <lane id=":c1_11_0" index="0" speed="9.26" length="6.96" shape="501.60,489.60 500.85,494.85 500.00,496.27"/>
    </edge>
    <edge id=":c1_18" function="internal">
        <lane id=":c1_18_0" index="0" speed="9.26" length="12.40" shape="500.00,496.27 498.60,498.60 494.85,500.85 489.60,501.60"/>
    </edge>
    <edge id=":c1_12" function="internal">
        <lane id=":c1_12_0" index="0" speed="6.51" length="9.03" shape="489.60,495.20 492.05,494.85 493.80,493.80 494.85,492.05 495.20,489.60"/>
    </edge>
    <edge id=":c1_13" function="internal">
        <lane id=":c1_13_0" index="0" speed="8.00" length="14.19" shape="489.60,498.40 493.45,497.85 496.20,496.20 497.85,493.45 498.40,489.60"/>
    </edge>
    <edge id=":c1_14" function="internal">
        <lane id=":c1_14_0" index="0" speed="13.89" length="20.80" shape="489.60,498.40 510.40,498.40"/>
    </edge>
    <edge id=":c1_15" function="internal">
        <lane id=":c1_15_0" index="0" speed="9.26" length="6.96" shape="489.60,498.40 494.85,499.15 496.27,500.00"/>
    </edge>
    <edge id=":c1_19" function="internal">
        <lane id=":c1_19_0" index="0" speed="9.26" length="12.40" shape="496.27,500.00 498.60,501.40 500.85,505.15 501.60,510.40"/>
    </edge>

    <edge id="e1i" from="e1" to="c1" priority="-1">
        <lane id="e1i_0" index="0" speed="13.89" length="489.60" shape="1000.00,504.80 510.40,504.80"/>
        <lane id="e1i_1" index="1" speed="13.89" length="489.60" shape="1000.00,501.60 510.40,501.60"/>
    </edge>
    <edge id="e1o" from="c1" to="e1" priority="-1">
        <lane id="e1o_0" index="0" speed="13.89" length="489.60" shape="510.40,495.20 1000.00,495.20"/>
        <lane id="e1o_1" index="1" speed="13.89" length="489.60" shape="510.40,498.40 1000.00,498.40"/>
    </edge>
    <edge id="n1i" from="n1" to="c1" priority="-1">
        <lane id="n1i_0" index="0" speed="13.89" length="489.60" shape="495.20,1000.00 495.20,510.40"/>
        <lane id="n1i_1" index="1" speed="13.89" length="489.60" shape="498.40,1000.00 498.40,510.40"/>
    </edge>
    <edge id="n1o" from="c1" to="n1" priority="-1">
        <lane id="n1o_0" index="0" speed="13.89" length="489.60" shape="504.80,510.40 504.80,1000.00"/>
        <lane id="n1o_1" index="1" speed="13.89" length="489.60" shape="501.60,510.40 501.60,1000.00"/>
    </edge>
    <edge id="s1i" from="s1" to="c1" priority="-1">
        <lane id="s1i_0" index="0" speed="13.89" length="489.60" shape="504.80,0.00 504.80,489.60"/>
        <lane id="s1i_1" index="1" speed="13.89" length="489.60" shape="501.60,0.00 501.60,489.60"/>
    </edge>
    <edge id="s1o" from="c1" to="s1" priority="-1">
        <lane id="s1o_0" index="0" speed="13.89" length="489.60" shape="495.20,489.60 495.20,0.00"/>
        <lane id="s1o_1" index="1" speed="13.89" length="489.60" shape="498.40,489.60 498.40,0.00"/>
    </edge>
    <edge id="w1i" from="w1" to="c1" priority="-1">
        <lane id="w1i_0" index="0" speed="13.89" length="489.60" shape="0.00,495.20 489.60,495.20"/>
        <lane id="w1i_1" index="1" speed="13.89" length="489.60" shape="0.00,498.40 489.60,498.40"/>
    </edge>
    <edge id="w1o" from="c1" to="w1" priority="-1">
        <lane id="w1o_0" index="0" speed="13.89" length="489.60" shape="489.60,504.80 0.00,504.80"/>
        <lane id="w1o_1" index="1" speed="13.89" length="489.60" shape="489.60,501.60 0.00,501.60"/>
    </edge>

    <tlLogic id="c1" type="static" programID="0" offset="0">
        <phase duration="30" state="ggggrrrrggggrrrr"/>
        <phase duration="5"  state="yyggrrrryyggrrrr"/>
        <phase duration="5"  state="rrggrrrrrrggrrrr"/>
        <phase duration="5"  state="rryyrrrrrryyrrrr"/>
        <phase duration="30" state="rrrrggggrrrrgggg"/>
        <phase duration="5"  state="rrrryyggrrrryygg"/>
        <phase duration="5"  state="rrrrrrggrrrrrrgg"/>
        <phase duration="5"  state="rrrrrryyrrrrrryy"/>
    </tlLogic>

    <junction id="c1" type="traffic_light" x="500.00" y="500.00" incLanes="n1i_0 n1i_1 e1i_0 e1i_1 s1i_0 s1i_1 w1i_0 w1i_1" intLanes=":c1_0_0 :c1_1_0 :c1_2_0 :c1_16_0 :c1_4_0 :c1_5_0 :c1_6_0 :c1_17_0 :c1_8_0 :c1_9_0 :c1_10_0 :c1_18_0 :c1_12_0 :c1_13_0 :c1_14_0 :c1_19_0" shape="493.60,510.40 506.40,510.40 506.84,508.18 507.40,507.40 508.18,506.84 509.18,506.51 510.40,506.40 510.40,493.60 508.18,493.16 507.40,492.60 506.84,491.82 506.51,490.82 506.40,489.60 493.60,489.60 493.16,491.82 492.60,492.60 491.82,493.16 490.82,493.49 489.60,493.60 489.60,506.40 491.82,506.84 492.60,507.40 493.16,508.18 493.49,509.18">
        <request index="0"  response="0000000000000000" foes="0000100001000000" cont="0"/>
        <request index="1"  response="0000000000000000" foes="0000100001000000" cont="0"/>
        <request index="2"  response="1000000010000000" foes="1111100011000000" cont="0"/>
        <request index="3"  response="1000011110000000" foes="1100011111000000" cont="1"/>
        <request index="4"  response="0000010000000000" foes="1000010000000000" cont="0"/>
        <request index="5"  response="0000010000000000" foes="1000010000000000" cont="0"/>
        <request index="6"  response="0000110000001111" foes="1000110000001111" cont="0"/>
        <request index="7"  response="0111110000001100" foes="0111110000001100" cont="1"/>
        <request index="8"  response="0000000000000000" foes="0100000000001000" cont="0"/>
        <request index="9"  response="0000000000000000" foes="0100000000001000" cont="0"/>
        <request index="10" response="1000000010000000" foes="1100000011111000" cont="0"/>
        <request index="11" response="1000000010000111" foes="1100000011000111" cont="1"/>
        <request index="12" response="0000000000000100" foes="0000000010000100" cont="0"/>
        <request index="13" response="0000000000000100" foes="0000000010000100" cont="0"/>
        <request index="14" response="0000111100001100" foes="0000111110001100" cont="0"/>
        <request index="15" response="0000110001111100" foes="0000110001111100" cont="1"/>
    </junction>
    <junction id="e1" type="dead_end" x="1000.00" y="500.00" incLanes="e1o_0 e1o_1" intLanes="" shape="1000.00,500.00 1000.00,493.60 1000.00,500.00"/>
    <junction id="n1" type="dead_end" x="500.00" y="1000.00" incLanes="n1o_0 n1o_1" intLanes="" shape="500.00,1000.00 506.40,1000.00 500.00,1000.00"/>
    <junction id="s1" type="dead_end" x="500.00" y="0.00" incLanes="s1o_0 s1o_1" intLanes="" shape="500.00,0.00 493.60,0.00 500.00,0.00"/>
    <junction id="w1" type="dead_end" x="0.00" y="500.00" incLanes="w1o_0 w1o_1" intLanes="" shape="0.00,500.00 0.00,506.40 0.00,500.00"/>

    <junction id=":c1_16_0" type="internal" x="500.00" y="503.73" incLanes=":c1_3_0 s1i_0 s1i_1" intLanes=":c1_6_0 :c1_7_0 :c1_8_0 :c1_9_0 :c1_10_0 :c1_14_0 :c1_15_0"/>
    <junction id=":c1_17_0" type="internal" x="503.73" y="500.00" incLanes=":c1_7_0 w1i_0 w1i_1" intLanes=":c1_2_0 :c1_3_0 :c1_10_0 :c1_11_0 :c1_12_0 :c1_13_0 :c1_14_0"/>
    <junction id=":c1_18_0" type="internal" x="500.00" y="496.27" incLanes=":c1_11_0 n1i_0 n1i_1" intLanes=":c1_0_0 :c1_1_0 :c1_2_0 :c1_6_0 :c1_7_0 :c1_14_0 :c1_15_0"/>
    <junction id=":c1_19_0" type="internal" x="496.27" y="500.00" incLanes=":c1_15_0 e1i_0 e1i_1" intLanes=":c1_2_0 :c1_3_0 :c1_4_0 :c1_5_0 :c1_6_0 :c1_10_0 :c1_11_0"/>

    <connection from="e1i" to="n1o" fromLane="0" toLane="0" via=":c1_4_0" tl="c1" linkIndex="4" dir="r" state="o"/>
    <connection from="e1i" to="n1o" fromLane="1" toLane="1" via=":c1_5_0" tl="c1" linkIndex="5" dir="r" state="o"/>
    <connection from="e1i" to="w1o" fromLane="1" toLane="1" via=":c1_6_0" tl="c1" linkIndex="6" dir="s" state="o"/>
    <connection from="e1i" to="s1o" fromLane="1" toLane="1" via=":c1_7_0" tl="c1" linkIndex="7" dir="l" state="o"/>
    <connection from="n1i" to="w1o" fromLane="0" toLane="0" via=":c1_0_0" tl="c1" linkIndex="0" dir="r" state="O"/>
    <connection from="n1i" to="w1o" fromLane="1" toLane="1" via=":c1_1_0" tl="c1" linkIndex="1" dir="r" state="O"/>
    <connection from="n1i" to="s1o" fromLane="1" toLane="1" via=":c1_2_0" tl="c1" linkIndex="2" dir="s" state="O"/>
    <connection from="n1i" to="e1o" fromLane="1" toLane="1" via=":c1_3_0" tl="c1" linkIndex="3" dir="l" state="o"/>
    <connection from="s1i" to="e1o" fromLane="0" toLane="0" via=":c1_8_0" tl="c1" linkIndex="8" dir="r" state="O"/>
    <connection from="s1i" to="e1o" fromLane="1" toLane="1" via=":c1_9_0" tl="c1" linkIndex="9" dir="r" state="O"/>
    <connection from="s1i" to="n1o" fromLane="1" toLane="1" via=":c1_10_0" tl="c1" linkIndex="10" dir="s" state="O"/>
    <connection from="s1i" to="w1o" fromLane="1" toLane="1" via=":c1_11_0" tl="c1" linkIndex="11" dir="l" state="o"/>
    <connection from="w1i" to="s1o" fromLane="0" toLane="0" via=":c1_12_0" tl="c1" linkIndex="12" dir="r" state="o"/>
    <connection from="w1i" to="s1o" fromLane="1" toLane="1" via=":c1_13_0" tl="c1" linkIndex="13" dir="r" state="o"/>
    <connection from="w1i" to="e1o" fromLane="1" toLane="1" via=":c1_14_0" tl="c1" linkIndex="14" dir="s" state="o"/>
    <connection from="w1i" to="n1o" fromLane="1" toLane="1" via=":c1_15_0" tl="c1" linkIndex="15" dir="l" state="o"/>

    <connection from=":c1_0" to="w1o" fromLane="0" toLane="0" dir="r" state="M"/>
    <connection from=":c1_1" to="w1o" fromLane="0" toLane="1" dir="r" state="M"/>
    <connection from=":c1_2" to="s1o" fromLane="0" toLane="1" dir="s" state="M"/>
    <connection from=":c1_3" to="e1o" fromLane="0" toLane="1" via=":c1_16_0" dir="l" state="m"/>
    <connection from=":c1_16" to="e1o" fromLane="0" toLane="1" dir="l" state="M"/>
    <connection from=":c1_4" to="n1o" fromLane="0" toLane="0" dir="r" state="M"/>
    <connection from=":c1_5" to="n1o" fromLane="0" toLane="1" dir="r" state="M"/>
    <connection from=":c1_6" to="w1o" fromLane="0" toLane="1" dir="s" state="M"/>
    <connection from=":c1_7" to="s1o" fromLane="0" toLane="1" via=":c1_17_0" dir="l" state="m"/>
    <connection from=":c1_17" to="s1o" fromLane="0" toLane="1" dir="l" state="M"/>
    <connection from=":c1_8" to="e1o" fromLane="0" toLane="0" dir="r" state="M"/>
    <connection from=":c1_9" to="e1o" fromLane="0" toLane="1" dir="r" state="M"/>
    <connection from=":c1_10" to="n1o" fromLane="0" toLane="1" dir="s" state="M"/>
    <connection from=":c1_11" to="w1o" fromLane="0" toLane="1" via=":c1_18_0" dir="l" state="m"/>
    <connection from=":c1_18" to="w1o" fromLane="0" toLane="1" dir="l" state="M"/>
    <connection from=":c1_12" to="s1o" fromLane="0" toLane="0" dir="r" state="M"/>
    <connection from=":c1_13" to="s1o" fromLane="0" toLane="1" dir="r" state="M"/>
    <connection from=":c1_14" to="e1o" fromLane="0" toLane="1" dir="s" state="M"/>
    <connection from=":c1_15" to="n1o" fromLane="0" toLane="1" via=":c1_19_0" dir="l" state="m"/>
    <connection from=":c1_19" to="n1o" fromLane="0" toLane="1" dir="l" state="M"/>

</net>
